Smart_Charging/1_Grid_Model/Master.dss
Clear
New circuit.Grid_model

Redirect Generators.dss
Redirect LineCode.dss
Redirect LoadShapes.dss
Redirect Lines.dss
Redirect Transformers.dss
Redirect Loads.dss
Redirect CPs.dss
Redirect PVs.dss
Redirect Monitors.dss

MakeBusList
Redirect BusVoltageBases.dss  
Buscoords buscoords.dss

Redirect AddBusMarker.dss

! Set normvminpu=1.01
! Set emergvminpu=0.99
! Plot circuit voltage subs=yes C1=green C2=blue C3=red

Solve


