Smart_Charging/1_Grid_Model/Loads.dss
New Load.load_1 Phases=1 Bus1=112.1 kV=0.23 kW=1 PF=0.95 Daily=Shape_1
New Load.load_2 Phases=1 Bus1=122.3 kV=0.23 kW=1 PF=0.95 Daily=Shape_2
New Load.load_3 Phases=1 Bus1=152.2 kV=0.23 kW=1 PF=0.95 Daily=Shape_3
New Load.load_4 Phases=1 Bus1=229.1 kV=0.23 kW=1 PF=0.95 Daily=Shape_4
New Load.load_5 Phases=1 Bus1=355.3 kV=0.23 kW=1 PF=0.95 Daily=Shape_5
New Load.load_6 Phases=1 Bus1=456.1 kV=0.23 kW=1 PF=0.95 Daily=Shape_6
New Load.load_7 Phases=1 Bus1=494.1 kV=0.23 kW=1 PF=0.95 Daily=Shape_7
New Load.load_8 Phases=1 Bus1=589.2 kV=0.23 kW=1 PF=0.95 Daily=Shape_8
New Load.load_9 Phases=1 Bus1=620.2 kV=0.23 kW=1 PF=0.95 Daily=Shape_9
New Load.load_10 Phases=1 Bus1=845.1 kV=0.23 kW=1 PF=0.95 Daily=Shape_10
New Load.load_11 Phases=1 Bus1=859.3 kV=0.23 kW=1 PF=0.95 Daily=Shape_11
New Load.load_12 Phases=1 Bus1=896.1 kV=0.23 kW=1 PF=0.95 Daily=Shape_12
New Load.load_13 Phases=1 Bus1=990.1 kV=0.23 kW=1 PF=0.95 Daily=Shape_13
New Load.load_14 Phases=1 Bus1=996.3 kV=0.23 kW=1 PF=0.95 Daily=Shape_14
New Load.load_15 Phases=1 Bus1=1029.1 kV=0.23 kW=1 PF=0.95 Daily=Shape_15
New Load.load_16 Phases=1 Bus1=1062.1 kV=0.23 kW=1 PF=0.95 Daily=Shape_16
New Load.load_17 Phases=1 Bus1=1072.3 kV=0.23 kW=1 PF=0.95 Daily=Shape_17
New Load.load_18 Phases=1 Bus1=1097.2 kV=0.23 kW=1 PF=0.95 Daily=Shape_18
New Load.load_19 Phases=1 Bus1=1102.2 kV=0.23 kW=1 PF=0.95 Daily=Shape_19
New Load.load_20 Phases=1 Bus1=1104.1 kV=0.23 kW=1 PF=0.95 Daily=Shape_20
New Load.load_21 Phases=1 Bus1=1126.2 kV=0.23 kW=1 PF=0.95 Daily=Shape_21
New Load.load_22 Phases=1 Bus1=1153.2 kV=0.23 kW=1 PF=0.95 Daily=Shape_22
New Load.load_23 Phases=1 Bus1=1166.2 kV=0.23 kW=1 PF=0.95 Daily=Shape_23
New Load.load_24 Phases=1 Bus1=1181.1 kV=0.23 kW=1 PF=0.95 Daily=Shape_24
New Load.load_25 Phases=1 Bus1=1212.1 kV=0.23 kW=1 PF=0.95 Daily=Shape_25
New Load.load_26 Phases=1 Bus1=1307.3 kV=0.23 kW=1 PF=0.95 Daily=Shape_26
New Load.load_27 Phases=1 Bus1=1309.2 kV=0.23 kW=1 PF=0.95 Daily=Shape_27
New Load.load_28 Phases=1 Bus1=1329.2 kV=0.23 kW=1 PF=0.95 Daily=Shape_28
New Load.load_29 Phases=1 Bus1=1330.3 kV=0.23 kW=1 PF=0.95 Daily=Shape_29
New Load.load_30 Phases=1 Bus1=1340.1 kV=0.23 kW=1 PF=0.95 Daily=Shape_30
New Load.load_31 Phases=1 Bus1=1354.1 kV=0.23 kW=1 PF=0.95 Daily=Shape_31
New Load.load_32 Phases=1 Bus1=1374.2 kV=0.23 kW=1 PF=0.95 Daily=Shape_32
New Load.load_33 Phases=1 Bus1=1380.2 kV=0.23 kW=1 PF=0.95 Daily=Shape_33
New Load.load_34 Phases=1 Bus1=1403.2 kV=0.23 kW=1 PF=0.95 Daily=Shape_34
New Load.load_35 Phases=1 Bus1=1408.2 kV=0.23 kW=1 PF=0.95 Daily=Shape_35
New Load.load_36 Phases=1 Bus1=1419.3 kV=0.23 kW=1 PF=0.95 Daily=Shape_36
New Load.load_37 Phases=1 Bus1=1466.3 kV=0.23 kW=1 PF=0.95 Daily=Shape_37
New Load.load_38 Phases=1 Bus1=1471.3 kV=0.23 kW=1 PF=0.95 Daily=Shape_38
New Load.load_39 Phases=1 Bus1=1504.3 kV=0.23 kW=1 PF=0.95 Daily=Shape_39
New Load.load_40 Phases=1 Bus1=1511.3 kV=0.23 kW=1 PF=0.95 Daily=Shape_40
New Load.load_41 Phases=1 Bus1=1523.1 kV=0.23 kW=1 PF=0.95 Daily=Shape_41
New Load.load_42 Phases=1 Bus1=1546.1 kV=0.23 kW=1 PF=0.95 Daily=Shape_42
New Load.load_43 Phases=1 Bus1=1552.2 kV=0.23 kW=1 PF=0.95 Daily=Shape_43
New Load.load_44 Phases=1 Bus1=1586.2 kV=0.23 kW=1 PF=0.95 Daily=Shape_44
New Load.load_45 Phases=1 Bus1=1618.3 kV=0.23 kW=1 PF=0.95 Daily=Shape_45
New Load.load_46 Phases=1 Bus1=1676.1 kV=0.23 kW=1 PF=0.95 Daily=Shape_46
New Load.load_47 Phases=1 Bus1=1677.1 kV=0.23 kW=1 PF=0.95 Daily=Shape_47
New Load.load_48 Phases=1 Bus1=1680.3 kV=0.23 kW=1 PF=0.95 Daily=Shape_48
New Load.load_49 Phases=1 Bus1=1699.2 kV=0.23 kW=1 PF=0.95 Daily=Shape_49
New Load.load_50 Phases=1 Bus1=1700.3 kV=0.23 kW=1 PF=0.95 Daily=Shape_50
New Load.load_51 Phases=1 Bus1=1719.2 kV=0.23 kW=1 PF=0.95 Daily=Shape_51
New Load.load_52 Phases=1 Bus1=1740.3 kV=0.23 kW=1 PF=0.95 Daily=Shape_52
New Load.load_53 Phases=1 Bus1=1814.2 kV=0.23 kW=1 PF=0.95 Daily=Shape_53
New Load.load_54 Phases=1 Bus1=1826.2 kV=0.23 kW=1 PF=0.95 Daily=Shape_54
New Load.load_55 Phases=1 Bus1=1829.3 kV=0.23 kW=1 PF=0.95 Daily=Shape_55
New Load.load_56 Phases=1 Bus1=1840.2 kV=0.23 kW=1 PF=0.95 Daily=Shape_56
New Load.load_57 Phases=1 Bus1=1871.1 kV=0.23 kW=1 PF=0.95 Daily=Shape_57
New Load.load_58 Phases=1 Bus1=1876.1 kV=0.23 kW=1 PF=0.95 Daily=Shape_58
New Load.load_59 Phases=1 Bus1=1925.2 kV=0.23 kW=1 PF=0.95 Daily=Shape_59
New Load.load_60 Phases=1 Bus1=2005.3 kV=0.23 kW=1 PF=0.95 Daily=Shape_60
New Load.load_61 Phases=1 Bus1=2012.2 kV=0.23 kW=1 PF=0.95 Daily=Shape_61
New Load.load_62 Phases=1 Bus1=2035.1 kV=0.23 kW=1 PF=0.95 Daily=Shape_62
New Load.load_63 Phases=1 Bus1=2093.2 kV=0.23 kW=1 PF=0.95 Daily=Shape_63
New Load.load_64 Phases=1 Bus1=2134.1 kV=0.23 kW=1 PF=0.95 Daily=Shape_64
New Load.load_65 Phases=1 Bus1=2176.1 kV=0.23 kW=1 PF=0.95 Daily=Shape_65
New Load.load_66 Phases=1 Bus1=2177.2 kV=0.23 kW=1 PF=0.95 Daily=Shape_66
New Load.load_67 Phases=1 Bus1=2181.2 kV=0.23 kW=1 PF=0.95 Daily=Shape_67
New Load.load_68 Phases=1 Bus1=2229.1 kV=0.23 kW=1 PF=0.95 Daily=Shape_68
New Load.load_69 Phases=1 Bus1=2258.3 kV=0.23 kW=1 PF=0.95 Daily=Shape_69
New Load.load_70 Phases=1 Bus1=2279.1 kV=0.23 kW=1 PF=0.95 Daily=Shape_70
New Load.load_71 Phases=1 Bus1=2280.2 kV=0.23 kW=1 PF=0.95 Daily=Shape_71
New Load.load_72 Phases=1 Bus1=2318.3 kV=0.23 kW=1 PF=0.95 Daily=Shape_72
New Load.load_73 Phases=1 Bus1=2340.3 kV=0.23 kW=1 PF=0.95 Daily=Shape_73
New Load.load_74 Phases=1 Bus1=2360.2 kV=0.23 kW=1 PF=0.95 Daily=Shape_74
New Load.load_75 Phases=1 Bus1=2408.3 kV=0.23 kW=1 PF=0.95 Daily=Shape_75
New Load.load_76 Phases=1 Bus1=2409.3 kV=0.23 kW=1 PF=0.95 Daily=Shape_76
New Load.load_77 Phases=1 Bus1=2424.2 kV=0.23 kW=1 PF=0.95 Daily=Shape_77
New Load.load_78 Phases=1 Bus1=2458.1 kV=0.23 kW=1 PF=0.95 Daily=Shape_78
New Load.load_79 Phases=1 Bus1=2467.1 kV=0.23 kW=1 PF=0.95 Daily=Shape_79
New Load.load_80 Phases=1 Bus1=2477.1 kV=0.23 kW=1 PF=0.95 Daily=Shape_80
New Load.load_81 Phases=1 Bus1=2480.2 kV=0.23 kW=1 PF=0.95 Daily=Shape_81
New Load.load_82 Phases=1 Bus1=2493.2 kV=0.23 kW=1 PF=0.95 Daily=Shape_82
New Load.load_83 Phases=1 Bus1=2511.2 kV=0.23 kW=1 PF=0.95 Daily=Shape_83
New Load.load_84 Phases=1 Bus1=2523.2 kV=0.23 kW=1 PF=0.95 Daily=Shape_84
New Load.load_85 Phases=1 Bus1=2660.3 kV=0.23 kW=1 PF=0.95 Daily=Shape_85
New Load.load_86 Phases=1 Bus1=2661.2 kV=0.23 kW=1 PF=0.95 Daily=Shape_86
New Load.load_87 Phases=1 Bus1=2702.3 kV=0.23 kW=1 PF=0.95 Daily=Shape_87
New Load.load_88 Phases=1 Bus1=2751.3 kV=0.23 kW=1 PF=0.95 Daily=Shape_88
New Load.load_89 Phases=1 Bus1=2754.1 kV=0.23 kW=1 PF=0.95 Daily=Shape_89
New Load.load_90 Phases=1 Bus1=2755.1 kV=0.23 kW=1 PF=0.95 Daily=Shape_90
New Load.load_91 Phases=1 Bus1=2768.3 kV=0.23 kW=1 PF=0.95 Daily=Shape_91
New Load.load_92 Phases=1 Bus1=2817.1 kV=0.23 kW=1 PF=0.95 Daily=Shape_92
New Load.load_93 Phases=1 Bus1=2854.1 kV=0.23 kW=1 PF=0.95 Daily=Shape_93
New Load.load_94 Phases=1 Bus1=2872.3 kV=0.23 kW=1 PF=0.95 Daily=Shape_94
New Load.load_95 Phases=1 Bus1=2899.2 kV=0.23 kW=1 PF=0.95 Daily=Shape_95
New Load.load_96 Phases=1 Bus1=2921.2 kV=0.23 kW=1 PF=0.95 Daily=Shape_96
New Load.load_97 Phases=1 Bus1=2934.3 kV=0.23 kW=1 PF=0.95 Daily=Shape_97
New Load.load_98 Phases=1 Bus1=2977.1 kV=0.23 kW=1 PF=0.95 Daily=Shape_98
New Load.load_99 Phases=1 Bus1=3028.1 kV=0.23 kW=1 PF=0.95 Daily=Shape_99
New Load.load_100 Phases=1 Bus1=3039.1 kV=0.23 kW=1 PF=0.95 Daily=Shape_100
New Load.load_101 Phases=1 Bus1=3042.1 kV=0.23 kW=1 PF=0.95 Daily=Shape_101
New Load.load_102 Phases=1 Bus1=3048.3 kV=0.23 kW=1 PF=0.95 Daily=Shape_102
New Load.load_103 Phases=1 Bus1=3058.3 kV=0.23 kW=1 PF=0.95 Daily=Shape_103
New Load.load_104 Phases=1 Bus1=3084.1 kV=0.23 kW=1 PF=0.95 Daily=Shape_104
New Load.load_105 Phases=1 Bus1=3119.3 kV=0.23 kW=1 PF=0.95 Daily=Shape_105
New Load.load_106 Phases=1 Bus1=3124.3 kV=0.23 kW=1 PF=0.95 Daily=Shape_106
New Load.load_107 Phases=1 Bus1=3149.2 kV=0.23 kW=1 PF=0.95 Daily=Shape_107
New Load.load_108 Phases=1 Bus1=3188.1 kV=0.23 kW=1 PF=0.95 Daily=Shape_108
New Load.load_109 Phases=1 Bus1=3190.2 kV=0.23 kW=1 PF=0.95 Daily=Shape_109
New Load.load_110 Phases=1 Bus1=3210.3 kV=0.23 kW=1 PF=0.95 Daily=Shape_110
New Load.load_111 Phases=1 Bus1=3223.2 kV=0.23 kW=1 PF=0.95 Daily=Shape_111
New Load.load_112 Phases=1 Bus1=3228.3 kV=0.23 kW=1 PF=0.95 Daily=Shape_112
New Load.load_113 Phases=1 Bus1=3242.1 kV=0.23 kW=1 PF=0.95 Daily=Shape_113
New Load.load_114 Phases=1 Bus1=3257.3 kV=0.23 kW=1 PF=0.95 Daily=Shape_114
New Load.load_115 Phases=1 Bus1=3305.2 kV=0.23 kW=1 PF=0.95 Daily=Shape_115
New Load.load_116 Phases=1 Bus1=3312.2 kV=0.23 kW=1 PF=0.95 Daily=Shape_116
New Load.load_117 Phases=1 Bus1=3315.3 kV=0.23 kW=1 PF=0.95 Daily=Shape_117
