Smart_Charging/1_Grid_Model/Grid_model_Curr_Elem.Txt

CIRCUIT ELEMENT CURRENTS

(Currents into element from indicated bus)

Power Delivery Elements

  Bus     Phase    Magnitude, A     Angle      (Real)   +j  (Imag)

ELEMENT = "Vsource.SOURCE"
SOURCEBUS     1           8.6482 /_  166.5 =    -8.4077 +j    2.0254
SOURCEBUS     2           8.5282 /_   44.4 =     6.0977 +j    5.9622
SOURCEBUS     3           8.3149 /_  -73.9 =     2.3099 +j   -7.9876
------------
SOURCEBUS     0           8.6482 /_  -13.5 =     8.4077 +j   -2.0254
SOURCEBUS     0           8.5282 /_ -135.6 =    -6.0977 +j   -5.9622
SOURCEBUS     0           8.3149 /_  106.1 =    -2.3099 +j    7.9876

ELEMENT = "Line.LINE1"
1             1           222.95 /_  -44.3 =     159.45 +j   -155.83
1             2           234.26 /_ -164.4 =    -225.61 +j   -63.069
1             3           216.74 /_   75.7 =     53.659 +j       210
------------
2             1           222.95 /_  135.7 =    -159.45 +j    155.83
2             2           234.26 /_   15.6 =     225.61 +j    63.069
2             3           216.74 /_ -104.3 =    -53.659 +j      -210

ELEMENT = "Line.LINE2"
2             1           222.95 /_  -44.3 =     159.45 +j   -155.83
2             2           234.26 /_ -164.4 =    -225.61 +j   -63.069
2             3           216.74 /_   75.7 =     53.659 +j       210
------------
3             1           222.95 /_  135.7 =    -159.45 +j    155.83
3             2           234.26 /_   15.6 =     225.61 +j    63.069
3             3           216.74 /_ -104.3 =    -53.659 +j      -210

ELEMENT = "Line.LINE3"
3             1           222.95 /_  -44.3 =     159.45 +j   -155.83
3             2           234.26 /_ -164.4 =    -225.61 +j   -63.069
3             3           216.74 /_   75.7 =     53.659 +j       210
------------
4             1           222.95 /_  135.7 =    -159.45 +j    155.83
4             2           234.26 /_   15.6 =     225.61 +j    63.069
4             3           216.74 /_ -104.3 =    -53.659 +j      -210

ELEMENT = "Line.LINE4"
4             1           222.95 /_  -44.3 =     159.45 +j   -155.83
4             2           234.26 /_ -164.4 =    -225.61 +j   -63.069
4             3           216.74 /_   75.7 =     53.659 +j       210
------------
5             1           222.95 /_  135.7 =    -159.45 +j    155.83
5             2           234.26 /_   15.6 =     225.61 +j    63.069
5             3           216.74 /_ -104.3 =    -53.659 +j      -210

ELEMENT = "Line.LINE5"
5             1           222.95 /_  -44.3 =     159.45 +j   -155.83
5             2           234.26 /_ -164.4 =    -225.61 +j   -63.069
5             3           216.74 /_   75.7 =     53.659 +j       210
------------
6             1           222.95 /_  135.7 =    -159.45 +j    155.83
6             2           234.26 /_   15.6 =     225.61 +j    63.069
6             3           216.74 /_ -104.3 =    -53.659 +j      -210

ELEMENT = "Line.LINE6"
6             1           222.95 /_  -44.3 =     159.45 +j   -155.83
6             2           234.26 /_ -164.4 =    -225.61 +j   -63.069
6             3           216.74 /_   75.7 =     53.659 +j       210
------------
7             1           222.95 /_  135.7 =    -159.45 +j    155.83
7             2           234.26 /_   15.6 =     225.61 +j    63.069
7             3           216.74 /_ -104.3 =    -53.659 +j      -210

ELEMENT = "Line.LINE7"
7             1           222.95 /_  -44.3 =     159.45 +j   -155.83
7             2           234.26 /_ -164.4 =    -225.61 +j   -63.069
7             3           216.74 /_   75.7 =     53.659 +j       210
------------
8             1           222.95 /_  135.7 =    -159.45 +j    155.83
8             2           234.26 /_   15.6 =     225.61 +j    63.069
8             3           216.74 /_ -104.3 =    -53.659 +j      -210

ELEMENT = "Line.LINE8"
8             1           222.95 /_  -44.3 =     159.45 +j   -155.83
8             2           234.26 /_ -164.4 =    -225.61 +j   -63.069
8             3           216.74 /_   75.7 =     53.659 +j       210
------------
9             1           222.95 /_  135.7 =    -159.45 +j    155.83
9             2           234.26 /_   15.6 =     225.61 +j    63.069
9             3           216.74 /_ -104.3 =    -53.659 +j      -210

ELEMENT = "Line.LINE9"
9             1           222.95 /_  -44.3 =     159.45 +j   -155.83
9             2           234.26 /_ -164.4 =    -225.61 +j   -63.069
9             3           216.74 /_   75.7 =     53.659 +j       210
------------
10            1           222.95 /_  135.7 =    -159.45 +j    155.83
10            2           234.26 /_   15.6 =     225.61 +j    63.069
10            3           216.74 /_ -104.3 =    -53.659 +j      -210

ELEMENT = "Line.LINE10"
10            1           222.95 /_  -44.3 =     159.45 +j   -155.83
10            2           234.26 /_ -164.4 =    -225.61 +j   -63.069
10            3           216.74 /_   75.7 =     53.659 +j       210
------------
11            1           222.95 /_  135.7 =    -159.45 +j    155.83
11            2           234.26 /_   15.6 =     225.61 +j    63.069
11            3           216.74 /_ -104.3 =    -53.659 +j      -210

ELEMENT = "Line.LINE11"
11            1           222.95 /_  -44.3 =     159.45 +j   -155.83
11            2           234.26 /_ -164.4 =    -225.61 +j   -63.069
11            3           216.74 /_   75.7 =     53.659 +j       210
------------
12            1           222.95 /_  135.7 =    -159.45 +j    155.83
12            2           234.26 /_   15.6 =     225.61 +j    63.069
12            3           216.74 /_ -104.3 =    -53.659 +j      -210

ELEMENT = "Line.LINE12"
12            1           222.95 /_  -44.3 =     159.45 +j   -155.83
12            2           234.26 /_ -164.4 =    -225.61 +j   -63.069
12            3           216.74 /_   75.7 =     53.659 +j       210
------------
13            1           222.95 /_  135.7 =    -159.45 +j    155.83
13            2           234.26 /_   15.6 =     225.61 +j    63.069
13            3           216.74 /_ -104.3 =    -53.659 +j      -210

ELEMENT = "Line.LINE13"
13            1           222.95 /_  -44.3 =     159.45 +j   -155.83
13            2           234.26 /_ -164.4 =    -225.61 +j   -63.069
13            3           216.74 /_   75.7 =     53.659 +j       210
------------
14            1           222.95 /_  135.7 =    -159.45 +j    155.83
14            2           234.26 /_   15.6 =     225.61 +j    63.069
14            3           216.74 /_ -104.3 =    -53.659 +j      -210

ELEMENT = "Line.LINE14"
14            1           222.95 /_  -44.3 =     159.45 +j   -155.83
14            2           234.26 /_ -164.4 =    -225.61 +j   -63.069
14            3           216.74 /_   75.7 =     53.659 +j       210
------------
15            1           222.95 /_  135.7 =    -159.45 +j    155.83
15            2           234.26 /_   15.6 =     225.61 +j    63.069
15            3           216.74 /_ -104.3 =    -53.659 +j      -210

ELEMENT = "Line.LINE15"
14            1      2.6031E-010 /_  153.4 =  -2.3283E-010 +j 1.1642E-010
14            2      4.2376E-010 /_ -164.1 =  -4.0745E-010 +j -1.1642E-010
14            3      2.6031E-010 /_  116.6 =  -1.1642E-010 +j 2.3283E-010
------------
16            1      2.6031E-010 /_  -26.6 =  2.3283E-010 +j -1.1642E-010
16            2      4.2376E-010 /_   15.9 =  4.0745E-010 +j 1.1642E-010
16            3      2.6031E-010 /_  -63.4 =  1.1642E-010 +j -2.3283E-010

ELEMENT = "Line.LINE16"
15            1      2.4851E-008 /_ -103.0 =  -5.5879E-009 +j -2.4214E-008
15            2      1.8743E-008 /_   26.6 =  1.6764E-008 +j 8.3819E-009
15            3      5.5879E-009 /_    0.0 =  5.5879E-009 +j         0
------------
17            1      2.4851E-008 /_   77.0 =  5.5879E-009 +j 2.4214E-008
17            2      1.8743E-008 /_ -153.4 =  -1.6764E-008 +j -8.3819E-009
17            3      5.5879E-009 /_  180.0 =  -5.5879E-009 +j         0

ELEMENT = "Line.LINE17"
15            1           222.95 /_  -44.3 =     159.45 +j   -155.83
15            2           234.26 /_ -164.4 =    -225.61 +j   -63.069
15            3           216.74 /_   75.7 =     53.659 +j       210
------------
18            1           222.95 /_  135.7 =    -159.45 +j    155.83
18            2           234.26 /_   15.6 =     225.61 +j    63.069
18            3           216.74 /_ -104.3 =    -53.659 +j      -210

ELEMENT = "Line.LINE18"
15            1      4.0674E-012 /_  -63.4 =  1.819E-012 +j -3.638E-012
15            2      6.5585E-012 /_  -33.7 =  5.457E-012 +j -3.638E-012
15            3      1.4552E-011 /_  -90.0 =          0 +j -1.4552E-011
------------
19            1      4.0674E-012 /_  116.6 =  -1.819E-012 +j 3.638E-012
19            2      6.5585E-012 /_  146.3 =  -5.457E-012 +j 3.638E-012
19            3      1.4552E-011 /_   90.0 =          0 +j 1.4552E-011

ELEMENT = "Line.LINE19"
17            1      1.5161E-008 /_  -79.4 =  2.794E-009 +j -1.4901E-008
17            2      1.6582E-008 /_   51.8 =  1.0245E-008 +j 1.3039E-008
17            3       1.178E-008 /_   18.4 =  1.1176E-008 +j 3.7253E-009
------------
20            1      1.5161E-008 /_  100.6 =  -2.794E-009 +j 1.4901E-008
20            2      1.6582E-008 /_ -128.2 =  -1.0245E-008 +j -1.3039E-008
20            3       1.178E-008 /_ -161.6 =  -1.1176E-008 +j -3.7253E-009

ELEMENT = "Line.LINE20"
18            1           222.95 /_  -44.3 =     159.45 +j   -155.83
18            2           234.26 /_ -164.4 =    -225.61 +j   -63.069
18            3           216.74 /_   75.7 =     53.659 +j       210
------------
21            1           222.95 /_  135.7 =    -159.45 +j    155.83
21            2           234.26 /_   15.6 =     225.61 +j    63.069
21            3           216.74 /_ -104.3 =    -53.659 +j      -210

ELEMENT = "Line.LINE21"
18            1      2.1828E-011 /_    0.0 =  2.1828E-011 +j         0
18            2           3E-011 /_  -14.0 =  2.9104E-011 +j -7.276E-012
18            3      1.4552E-011 /_  180.0 =  -1.4552E-011 +j         0
------------
22            1      2.1828E-011 /_  180.0 =  -2.1828E-011 +j         0
22            2           3E-011 /_  166.0 =  -2.9104E-011 +j 7.276E-012
22            3      1.4552E-011 /_    0.0 =  1.4552E-011 +j         0

ELEMENT = "Line.LINE22"
20            1      2.0029E-008 /_  -88.7 =  4.6566E-010 +j -2.0023E-008
20            2      9.1725E-009 /_   24.0 =  8.3819E-009 +j 3.7253E-009
20            3      7.4506E-009 /_    0.0 =  7.4506E-009 +j         0
------------
23            1      2.0029E-008 /_   91.3 =  -4.6566E-010 +j 2.0023E-008
23            2      9.1725E-009 /_ -156.0 =  -8.3819E-009 +j -3.7253E-009
23            3      7.4506E-009 /_  180.0 =  -7.4506E-009 +j         0

ELEMENT = "Line.LINE23"
21            1           222.95 /_  -44.3 =     159.45 +j   -155.83
21            2           234.26 /_ -164.4 =    -225.61 +j   -63.069
21            3           216.74 /_   75.7 =     53.659 +j       210
------------
24            1           222.95 /_  135.7 =    -159.45 +j    155.83
24            2           234.26 /_   15.6 =     225.61 +j    63.069
24            3           216.74 /_ -104.3 =    -53.659 +j      -210

ELEMENT = "Line.LINE24"
21            1      2.3283E-010 /_    0.0 =  2.3283E-010 +j         0
21            2      3.6814E-010 /_  -71.6 =  1.1642E-010 +j -3.4925E-010
21            3      1.0413E-009 /_  153.4 =  -9.3132E-010 +j 4.6566E-010
------------
25            1      2.3283E-010 /_  180.0 =  -2.3283E-010 +j         0
25            2      3.6814E-010 /_  108.4 =  -1.1642E-010 +j 3.4925E-010
25            3      1.0413E-009 /_  -26.6 =  9.3132E-010 +j -4.6566E-010

ELEMENT = "Line.LINE25"
23            1      1.9098E-008 /_  -88.6 =  4.6566E-010 +j -1.9092E-008
23            2      1.1272E-008 /_   38.3 =  8.8476E-009 +j 6.9849E-009
23            3      7.9025E-009 /_  -45.0 =  5.5879E-009 +j -5.5879E-009
------------
26            1      1.9098E-008 /_   91.4 =  -4.6566E-010 +j 1.9092E-008
26            2      1.1272E-008 /_ -141.7 =  -8.8476E-009 +j -6.9849E-009
26            3      7.9025E-009 /_  135.0 =  -5.5879E-009 +j 5.5879E-009

ELEMENT = "Line.LINE26"
24            1           222.95 /_  -44.3 =     159.45 +j   -155.83
24            2           234.26 /_ -164.4 =    -225.61 +j   -63.069
24            3           216.74 /_   75.7 =     53.659 +j       210
------------
27            1           222.95 /_  135.7 =    -159.45 +j    155.83
27            2           234.26 /_   15.6 =     225.61 +j    63.069
27            3           216.74 /_ -104.3 =    -53.659 +j      -210

ELEMENT = "Line.LINE27"
24            1      8.2318E-010 /_  -81.9 =  1.1642E-010 +j -8.1491E-010
24            2      3.6814E-010 /_  108.4 =  -1.1642E-010 +j 3.4925E-010
24            3      4.6566E-010 /_  -90.0 =          0 +j -4.6566E-010
------------
28            1      8.2318E-010 /_   98.1 =  -1.1642E-010 +j 8.1491E-010
28            2      3.6814E-010 /_  -71.6 =  1.1642E-010 +j -3.4925E-010
28            3      4.6566E-010 /_   90.0 =          0 +j 4.6566E-010

ELEMENT = "Line.LINE28"
26            1      1.6557E-008 /_  -93.2 =  -9.3132E-010 +j -1.6531E-008
26            2      8.5895E-009 /_   32.8 =  7.2177E-009 +j 4.6566E-009
26            3      5.9634E-009 /_  -38.7 =  4.6566E-009 +j -3.7253E-009
------------
29            1      1.6557E-008 /_   86.8 =  9.3132E-010 +j 1.6531E-008
29            2      8.5895E-009 /_ -147.2 =  -7.2177E-009 +j -4.6566E-009
29            3      5.9634E-009 /_  141.3 =  -4.6566E-009 +j 3.7253E-009

ELEMENT = "Line.LINE29"
27            1           222.95 /_  -44.3 =     159.45 +j   -155.83
27            2           234.26 /_ -164.4 =    -225.61 +j   -63.069
27            3           216.74 /_   75.7 =     53.659 +j       210
------------
30            1           222.95 /_  135.7 =    -159.45 +j    155.83
30            2           234.26 /_   15.6 =     225.61 +j    63.069
30            3           216.74 /_ -104.3 =    -53.659 +j      -210

ELEMENT = "Line.LINE30"
27            1      5.8208E-010 /_ -143.1 =  -4.6566E-010 +j -3.4925E-010
27            2      4.1974E-010 /_   56.3 =  2.3283E-010 +j 3.4925E-010
27            3      5.2063E-010 /_ -116.6 =  -2.3283E-010 +j -4.6566E-010
------------
31            1      5.8208E-010 /_   36.9 =  4.6566E-010 +j 3.4925E-010
31            2      4.1974E-010 /_ -123.7 =  -2.3283E-010 +j -3.4925E-010
31            3      5.2063E-010 /_   63.4 =  2.3283E-010 +j 4.6566E-010

ELEMENT = "Line.LINE31"
29            1       1.314E-008 /_  -82.9 =  1.6298E-009 +j -1.3039E-008
29            2      8.5389E-009 /_   25.9 =  7.6834E-009 +j 3.7253E-009
29            3      8.5864E-009 /_  -49.4 =  5.5879E-009 +j -6.5193E-009
------------
32            1       1.314E-008 /_   97.1 =  -1.6298E-009 +j 1.3039E-008
32            2      8.5389E-009 /_ -154.1 =  -7.6834E-009 +j -3.7253E-009
32            3      8.5864E-009 /_  130.6 =  -5.5879E-009 +j 6.5193E-009

ELEMENT = "Line.LINE32"
30            1           222.95 /_  -44.3 =     159.45 +j   -155.83
30            2           234.26 /_ -164.4 =    -225.61 +j   -63.069
30            3           216.74 /_   75.7 =     53.659 +j       210
------------
33            1           222.95 /_  135.7 =    -159.45 +j    155.83
33            2           234.26 /_   15.6 =     225.61 +j    63.069
33            3           216.74 /_ -104.3 =    -53.659 +j      -210

ELEMENT = "Line.LINE33"
30            1      8.2318E-010 /_  -98.1 =  -1.1642E-010 +j -8.1491E-010
30            2      2.6031E-010 /_  -26.6 =  2.3283E-010 +j -1.1642E-010
30            3      4.6566E-010 /_   90.0 =          0 +j 4.6566E-010
------------
34            1      8.2318E-010 /_   81.9 =  1.1642E-010 +j 8.1491E-010
34            2      2.6031E-010 /_  153.4 =  -2.3283E-010 +j 1.1642E-010
34            3      4.6566E-010 /_  -90.0 =          0 +j -4.6566E-010

ELEMENT = "Line.LINE34"
32            1       1.677E-008 /_  -91.6 =  -4.6566E-010 +j -1.6764E-008
32            2      6.9226E-009 /_   19.7 =  6.5193E-009 +j 2.3283E-009
32            3       4.165E-009 /_   26.6 =  3.7253E-009 +j 1.8626E-009
------------
35            1       1.677E-008 /_   88.4 =  4.6566E-010 +j 1.6764E-008
35            2      6.9226E-009 /_ -160.3 =  -6.5193E-009 +j -2.3283E-009
35            3       4.165E-009 /_ -153.4 =  -3.7253E-009 +j -1.8626E-009

ELEMENT = "Line.LINE35"
33            1           222.95 /_  -44.3 =     159.45 +j   -155.83
33            2           234.26 /_ -164.4 =    -225.61 +j   -63.069
33            3           216.74 /_   75.7 =     53.659 +j       210
------------
36            1           222.95 /_  135.7 =    -159.45 +j    155.83
36            2           234.26 /_   15.6 =     225.61 +j    63.069
36            3           216.74 /_ -104.3 =    -53.659 +j      -210

ELEMENT = "Line.LINE36"
33            1      6.5854E-010 /_  135.0 =  -4.6566E-010 +j 4.6566E-010
33            2      1.1642E-010 /_    0.0 =  1.1642E-010 +j         0
33            3      6.5854E-010 /_  135.0 =  -4.6566E-010 +j 4.6566E-010
------------
37            1      6.5854E-010 /_  -45.0 =  4.6566E-010 +j -4.6566E-010
37            2      1.1642E-010 /_  180.0 =  -1.1642E-010 +j         0
37            3      6.5854E-010 /_  -45.0 =  4.6566E-010 +j -4.6566E-010

ELEMENT = "Line.LINE37"
35            1      1.3696E-008 /_ -107.8 =  -4.191E-009 +j -1.3039E-008
35            2      7.0927E-009 /_   23.2 =  6.5193E-009 +j 2.794E-009
35            3      3.8399E-009 /_ -104.0 =  -9.3132E-010 +j -3.7253E-009
------------
38            1      1.3696E-008 /_   72.2 =  4.191E-009 +j 1.3039E-008
38            2      7.0927E-009 /_ -156.8 =  -6.5193E-009 +j -2.794E-009
38            3      3.8399E-009 /_   76.0 =  9.3132E-010 +j 3.7253E-009

ELEMENT = "Line.LINE38"
36            1           222.95 /_  -44.3 =     159.45 +j   -155.83
36            2           234.26 /_ -164.4 =    -225.61 +j   -63.069
36            3           216.74 /_   75.7 =     53.659 +j       210
------------
39            1           222.95 /_  135.7 =    -159.45 +j    155.83
39            2           234.26 /_   15.6 =     225.61 +j    63.069
39            3           216.74 /_ -104.3 =    -53.659 +j      -210

ELEMENT = "Line.LINE39"
36            1      2.6031E-010 /_   63.4 =  1.1642E-010 +j 2.3283E-010
36            2      2.3283E-010 /_  180.0 =  -2.3283E-010 +j         0
36            3      2.3283E-010 /_  180.0 =  -2.3283E-010 +j         0
------------
40            1      2.6031E-010 /_ -116.6 =  -1.1642E-010 +j -2.3283E-010
40            2      2.3283E-010 /_    0.0 =  2.3283E-010 +j         0
40            3      2.3283E-010 /_    0.0 =  2.3283E-010 +j         0

ELEMENT = "Line.LINE40"
38            1      1.6869E-008 /_ -110.2 =  -5.8208E-009 +j -1.5832E-008
38            2      5.6362E-009 /_   51.7 =  3.4925E-009 +j 4.4238E-009
38            3      4.7488E-009 /_  101.3 =  -9.3132E-010 +j 4.6566E-009
------------
41            1      1.6869E-008 /_   69.8 =  5.8208E-009 +j 1.5832E-008
41            2      5.6362E-009 /_ -128.3 =  -3.4925E-009 +j -4.4238E-009
41            3      4.7488E-009 /_  -78.7 =  9.3132E-010 +j -4.6566E-009

ELEMENT = "Line.LINE41"
39            1           222.95 /_  -44.3 =     159.45 +j   -155.83
39            2           234.26 /_ -164.4 =    -225.61 +j   -63.069
39            3           216.74 /_   75.7 =     53.659 +j       210
------------
42            1           222.95 /_  135.7 =    -159.45 +j    155.83
42            2           234.26 /_   15.6 =     225.61 +j    63.069
42            3           216.74 /_ -104.3 =    -53.659 +j      -210

ELEMENT = "Line.LINE42"
39            1      3.2927E-010 /_ -135.0 =  -2.3283E-010 +j -2.3283E-010
39            2      4.7999E-010 /_  166.0 =  -4.6566E-010 +j 1.1642E-010
39            3      6.5854E-010 /_  -45.0 =  4.6566E-010 +j -4.6566E-010
------------
43            1      3.2927E-010 /_   45.0 =  2.3283E-010 +j 2.3283E-010
43            2      4.7999E-010 /_  -14.0 =  4.6566E-010 +j -1.1642E-010
43            3      6.5854E-010 /_  135.0 =  -4.6566E-010 +j 4.6566E-010

ELEMENT = "Line.LINE43"
41            1      1.5711E-008 /_ -106.4 =  -4.4238E-009 +j -1.5076E-008
41            2      5.2915E-009 /_   50.4 =  3.376E-009 +j 4.0745E-009
41            3      4.9733E-009 /_   69.4 =  1.7462E-009 +j 4.6566E-009
------------
44            1      1.5711E-008 /_   73.6 =  4.4238E-009 +j 1.5076E-008
44            2      5.2915E-009 /_ -129.6 =  -3.376E-009 +j -4.0745E-009
44            3      4.9733E-009 /_ -110.6 =  -1.7462E-009 +j -4.6566E-009

ELEMENT = "Line.LINE44"
42            1      2.0331E-009 /_  -76.8 =  4.6566E-010 +j -1.9791E-009
42            2      1.4163E-009 /_   -9.5 =  1.397E-009 +j -2.3283E-010
42            3      4.6566E-010 /_   90.0 =          0 +j 4.6566E-010
------------
45            1      2.0331E-009 /_  103.2 =  -4.6566E-010 +j 1.9791E-009
45            2      1.4163E-009 /_  170.5 =  -1.397E-009 +j 2.3283E-010
45            3      4.6566E-010 /_  -90.0 =          0 +j -4.6566E-010

ELEMENT = "Line.LINE45"
42            1      1.0014E-009 /_  -54.5 =  5.8208E-010 +j -8.1491E-010
42            2      6.2692E-010 /_ -158.2 =  -5.8208E-010 +j -2.3283E-010
42            3      4.6566E-010 /_  -90.0 =          0 +j -4.6566E-010
------------
46            1      1.0014E-009 /_  125.5 =  -5.8208E-010 +j 8.1491E-010
46            2      6.2692E-010 /_   21.8 =  5.8208E-010 +j 2.3283E-010
46            3      4.6566E-010 /_   90.0 =          0 +j 4.6566E-010

ELEMENT = "Line.LINE46"
42            1           119.56 /_  -48.6 =     79.115 +j   -89.635
42            2           181.34 /_ -163.1 =    -173.55 +j   -52.607
42            3           194.76 /_   76.1 =     46.675 +j    189.08
------------
47            1           119.56 /_  131.4 =    -79.115 +j    89.635
47            2           181.34 /_   16.9 =     173.55 +j    52.607
47            3           194.76 /_ -103.9 =    -46.675 +j   -189.08

ELEMENT = "Line.LINE47"
42            1            104.1 /_  -39.5 =      80.34 +j   -66.195
42            2           53.107 /_ -168.6 =    -52.067 +j   -10.462
42            3           22.052 /_   71.5 =     6.9846 +j    20.917
------------
48            1            104.1 /_  140.5 =     -80.34 +j    66.195
48            2           53.107 /_   11.4 =     52.067 +j    10.462
48            3           22.052 /_ -108.5 =    -6.9846 +j   -20.917

ELEMENT = "Line.LINE48"
44            1      1.5414E-008 /_ -104.0 =  -3.718E-009 +j -1.4959E-008
44            2      5.5757E-009 /_   49.1 =  3.6525E-009 +j 4.2128E-009
44            3      4.9938E-009 /_   67.9 =  1.8772E-009 +j 4.6275E-009
------------
49            1      1.5414E-008 /_   76.0 =  3.718E-009 +j 1.4959E-008
49            2      5.5757E-009 /_ -130.9 =  -3.6525E-009 +j -4.2128E-009
49            3      4.9938E-009 /_ -112.1 =  -1.8772E-009 +j -4.6275E-009

ELEMENT = "Line.LINE49"
45            1      3.5406E-010 /_  -80.5 =  5.8208E-011 +j -3.4925E-010
45            2      6.0771E-010 /_ -163.3 =  -5.8208E-010 +j -1.7462E-010
45            3      5.2063E-010 /_   63.4 =  2.3283E-010 +j 4.6566E-010
------------
50            1      3.5406E-010 /_   99.5 =  -5.8208E-011 +j 3.4925E-010
50            2      6.0771E-010 /_   16.7 =  5.8208E-010 +j 1.7462E-010
50            3      5.2063E-010 /_ -116.6 =  -2.3283E-010 +j -4.6566E-010

ELEMENT = "Line.LINE50"
45            1      3.5406E-010 /_  -80.5 =  5.8208E-011 +j -3.4925E-010
45            2      6.0771E-010 /_ -163.3 =  -5.8208E-010 +j -1.7462E-010
45            3      5.2063E-010 /_   63.4 =  2.3283E-010 +j 4.6566E-010
------------
51            1      3.5406E-010 /_   99.5 =  -5.8208E-011 +j 3.4925E-010
51            2      6.0771E-010 /_   16.7 =  5.8208E-010 +j 1.7462E-010
51            3      5.2063E-010 /_ -116.6 =  -2.3283E-010 +j -4.6566E-010

ELEMENT = "Line.LINE51"
47            1           119.56 /_  -48.6 =     79.115 +j   -89.635
47            2           181.34 /_ -163.1 =    -173.55 +j   -52.607
47            3           194.76 /_   76.1 =     46.675 +j    189.08
------------
52            1           119.56 /_  131.4 =    -79.115 +j    89.635
52            2           181.34 /_   16.9 =     173.55 +j    52.607
52            3           194.76 /_ -103.9 =    -46.675 +j   -189.08

ELEMENT = "Line.LINE52"
48            1      5.8208E-009 /_  -53.1 =  3.4925E-009 +j -4.6566E-009
48            2      1.0213E-008 /_  133.2 =  -6.9849E-009 +j 7.4506E-009
48            3      2.3645E-008 /_   64.9 =  1.0012E-008 +j 2.142E-008
------------
53            1      5.8208E-009 /_  126.9 =  -3.4925E-009 +j 4.6566E-009
53            2      1.0213E-008 /_  -46.8 =  6.9849E-009 +j -7.4506E-009
53            3      2.3645E-008 /_ -115.1 =  -1.0012E-008 +j -2.142E-008

ELEMENT = "Line.LINE53"
48            1            104.1 /_  -39.5 =      80.34 +j   -66.195
48            2           53.107 /_ -168.6 =    -52.067 +j   -10.462
48            3           22.052 /_   71.5 =     6.9846 +j    20.917
------------
54            1            104.1 /_  140.5 =     -80.34 +j    66.195
54            2           53.107 /_   11.4 =     52.067 +j    10.462
54            3           22.052 /_ -108.5 =    -6.9846 +j   -20.917

ELEMENT = "Line.LINE54"
48            1      9.5999E-010 /_ -104.0 =  -2.3283E-010 +j -9.3132E-010
48            2      3.2927E-010 /_   45.0 =  2.3283E-010 +j 2.3283E-010
48            3      1.0413E-009 /_  -63.4 =  4.6566E-010 +j -9.3132E-010
------------
55            1      9.5999E-010 /_   76.0 =  2.3283E-010 +j 9.3132E-010
55            2      3.2927E-010 /_ -135.0 =  -2.3283E-010 +j -2.3283E-010
55            3      1.0413E-009 /_  116.6 =  -4.6566E-010 +j 9.3132E-010

ELEMENT = "Line.LINE55"
49            1      1.5192E-008 /_ -103.3 =  -3.4925E-009 +j -1.4785E-008
49            2      5.2786E-009 /_   48.6 =  3.4925E-009 +j 3.9581E-009
49            3      4.5862E-009 /_   66.0 =  1.8626E-009 +j 4.191E-009
------------
56            1      1.5192E-008 /_   76.7 =  3.4925E-009 +j 1.4785E-008
56            2      5.2786E-009 /_ -131.4 =  -3.4925E-009 +j -3.9581E-009
56            3      4.5862E-009 /_ -114.0 =  -1.8626E-009 +j -4.191E-009

ELEMENT = "Line.LINE56"
52            1           119.56 /_  -48.6 =     79.115 +j   -89.635
52            2           181.34 /_ -163.1 =    -173.55 +j   -52.607
52            3           194.76 /_   76.1 =     46.675 +j    189.08
------------
57            1           119.56 /_  131.4 =    -79.115 +j    89.635
57            2           181.34 /_   16.9 =     173.55 +j    52.607
57            3           194.76 /_ -103.9 =    -46.675 +j   -189.08

ELEMENT = "Line.LINE57"
53            1      1.0901E-008 /_  -70.0 =  3.7253E-009 +j -1.0245E-008
53            2      1.4726E-008 /_  124.7 =  -8.3819E-009 +j 1.2107E-008
53            3       2.542E-008 /_   61.6 =  1.2107E-008 +j 2.2352E-008
------------
58            1      1.0901E-008 /_  110.0 =  -3.7253E-009 +j 1.0245E-008
58            2      1.4726E-008 /_  -55.3 =  8.3819E-009 +j -1.2107E-008
58            3       2.542E-008 /_ -118.4 =  -1.2107E-008 +j -2.2352E-008

ELEMENT = "Line.LINE58"
53            1      5.6073E-009 /_   85.2 =  4.6566E-010 +j 5.5879E-009
53            2      3.3579E-009 /_  123.7 =  -1.8626E-009 +j 2.794E-009
53            3       2.794E-009 /_  180.0 =  -2.794E-009 +j         0
------------
59            1      5.6073E-009 /_  -94.8 =  -4.6566E-010 +j -5.5879E-009
59            2      3.3579E-009 /_  -56.3 =  1.8626E-009 +j -2.794E-009
59            3       2.794E-009 /_    0.0 =  2.794E-009 +j         0

ELEMENT = "Line.LINE59"
54            1            104.1 /_  -39.5 =      80.34 +j   -66.195
54            2           53.107 /_ -168.6 =    -52.067 +j   -10.462
54            3           22.052 /_   71.5 =     6.9846 +j    20.917
------------
60            1            104.1 /_  140.5 =     -80.34 +j    66.195
60            2           53.107 /_   11.4 =     52.067 +j    10.462
60            3           22.052 /_ -108.5 =    -6.9846 +j   -20.917

ELEMENT = "Line.LINE60"
56            1      1.7377E-008 /_ -107.9 =  -5.3551E-009 +j -1.6531E-008
56            2      6.6591E-009 /_   53.5 =  3.9581E-009 +j 5.3551E-009
56            3      3.9786E-009 /_   69.4 =  1.397E-009 +j 3.7253E-009
------------
61            1      1.7377E-008 /_   72.1 =  5.3551E-009 +j 1.6531E-008
61            2      6.6591E-009 /_ -126.5 =  -3.9581E-009 +j -5.3551E-009
61            3      3.9786E-009 /_ -110.6 =  -1.397E-009 +j -3.7253E-009

ELEMENT = "Line.LINE61"
57            1           119.56 /_  -48.6 =     79.115 +j   -89.635
57            2           181.34 /_ -163.1 =    -173.55 +j   -52.607
57            3           194.76 /_   76.1 =     46.675 +j    189.08
------------
62            1           119.56 /_  131.4 =    -79.115 +j    89.635
62            2           181.34 /_   16.9 =     173.55 +j    52.607
62            3           194.76 /_ -103.9 =    -46.675 +j   -189.08

ELEMENT = "Line.LINE62"
58            1      1.2495E-008 /_  -26.6 =  1.1176E-008 +j -5.5879E-009
58            2      1.5839E-008 /_  155.7 =  -1.4435E-008 +j 6.5193E-009
58            3      2.3872E-008 /_   69.4 =  8.3819E-009 +j 2.2352E-008
------------
63            1      1.2495E-008 /_  153.4 =  -1.1176E-008 +j 5.5879E-009
63            2      1.5839E-008 /_  -24.3 =  1.4435E-008 +j -6.5193E-009
63            3      2.3872E-008 /_ -110.6 =  -8.3819E-009 +j -2.2352E-008

ELEMENT = "Line.LINE63"
58            1      5.7599E-009 /_  104.0 =  -1.397E-009 +j 5.5879E-009
58            2      9.3132E-010 /_  180.0 =  -9.3132E-010 +j         0
58            3                0 /_    0.0 =          0 +j         0
------------
64            1      5.7599E-009 /_  -76.0 =  1.397E-009 +j -5.5879E-009
64            2      9.3132E-010 /_    0.0 =  9.3132E-010 +j         0
64            3                0 /_    0.0 =          0 +j         0

ELEMENT = "Line.LINE64"
...