Smart_Charging/1_Grid_Model/Grid_model_Power_elem_kVA.txt

CIRCUIT ELEMENT POWER FLOW

(Power Flow into element from indicated Bus)

Power Delivery Elements

  Bus     Phase     kW     +j   kvar         kVA         PF

ELEMENT = "Vsource.SOURCE"
SOURCEBUS     1       -53.4 +j    -12.7       54.9       0.9728
SOURCEBUS     2       -52.1 +j    -14.5       54.1       0.9636
SOURCEBUS     3       -51.2 +j    -12.5       52.7       0.9714
   TERMINAL TOTAL .  -156.7 +j    -39.7      161.7       0.9694
SOURCEBUS     0         0.0 +j      0.0        0.0       1.0000
SOURCEBUS     0         0.0 +j      0.0        0.0       1.0000
SOURCEBUS     0         0.0 +j      0.0        0.0       1.0000
   TERMINAL TOTAL .     0.0 +j      0.0        0.0       1.0000

ELEMENT = "Line.LINE1"
1             1        51.8 +j     13.0       53.4       0.9699
1             2        54.4 +j     13.7       56.1       0.9697
1             3        50.4 +j     12.6       51.9       0.9699
   TERMINAL TOTAL .   156.6 +j     39.4      161.4       0.9698
2             1       -51.8 +j    -13.0       53.4       0.9699
2             2       -54.4 +j    -13.7       56.1       0.9697
2             3       -50.4 +j    -12.6       51.9       0.9699
   TERMINAL TOTAL .  -156.6 +j    -39.4      161.4       0.9698

ELEMENT = "Line.LINE2"
2             1        51.8 +j     13.0       53.4       0.9699
2             2        54.4 +j     13.7       56.1       0.9697
2             3        50.4 +j     12.6       51.9       0.9699
   TERMINAL TOTAL .   156.6 +j     39.4      161.4       0.9698
3             1       -51.8 +j    -13.0       53.4       0.9699
3             2       -54.4 +j    -13.7       56.1       0.9697
3             3       -50.4 +j    -12.6       51.9       0.9699
   TERMINAL TOTAL .  -156.6 +j    -39.3      161.4       0.9698

ELEMENT = "Line.LINE3"
3             1        51.8 +j     13.0       53.4       0.9699
3             2        54.4 +j     13.7       56.1       0.9697
3             3        50.4 +j     12.6       51.9       0.9699
   TERMINAL TOTAL .   156.6 +j     39.3      161.4       0.9698
4             1       -51.8 +j    -13.0       53.4       0.9699
4             2       -54.4 +j    -13.7       56.1       0.9697
4             3       -50.4 +j    -12.6       51.9       0.9699
   TERMINAL TOTAL .  -156.6 +j    -39.3      161.4       0.9698

ELEMENT = "Line.LINE4"
4             1        51.8 +j     13.0       53.4       0.9699
4             2        54.4 +j     13.7       56.1       0.9697
4             3        50.4 +j     12.6       51.9       0.9699
   TERMINAL TOTAL .   156.6 +j     39.3      161.4       0.9698
5             1       -51.8 +j    -13.0       53.4       0.9699
5             2       -54.4 +j    -13.7       56.1       0.9697
5             3       -50.4 +j    -12.6       51.9       0.9699
   TERMINAL TOTAL .  -156.6 +j    -39.3      161.4       0.9698

ELEMENT = "Line.LINE5"
5             1        51.8 +j     13.0       53.4       0.9699
5             2        54.4 +j     13.7       56.1       0.9697
5             3        50.4 +j     12.6       51.9       0.9699
   TERMINAL TOTAL .   156.6 +j     39.3      161.4       0.9698
6             1       -51.8 +j    -13.0       53.4       0.9699
6             2       -54.4 +j    -13.7       56.1       0.9697
6             3       -50.4 +j    -12.6       51.9       0.9699
   TERMINAL TOTAL .  -156.6 +j    -39.3      161.4       0.9698

ELEMENT = "Line.LINE6"
6             1        51.8 +j     13.0       53.4       0.9699
6             2        54.4 +j     13.7       56.1       0.9697
6             3        50.4 +j     12.6       51.9       0.9699
   TERMINAL TOTAL .   156.6 +j     39.3      161.4       0.9698
7             1       -51.8 +j    -13.0       53.4       0.9699
7             2       -54.4 +j    -13.7       56.1       0.9697
7             3       -50.4 +j    -12.6       51.9       0.9699
   TERMINAL TOTAL .  -156.6 +j    -39.3      161.4       0.9698

ELEMENT = "Line.LINE7"
7             1        51.8 +j     13.0       53.4       0.9699
7             2        54.4 +j     13.7       56.1       0.9697
7             3        50.4 +j     12.6       51.9       0.9699
   TERMINAL TOTAL .   156.6 +j     39.3      161.4       0.9698
8             1       -51.8 +j    -13.0       53.4       0.9699
8             2       -54.4 +j    -13.7       56.1       0.9697
8             3       -50.4 +j    -12.6       51.9       0.9699
   TERMINAL TOTAL .  -156.6 +j    -39.3      161.4       0.9698

ELEMENT = "Line.LINE8"
8             1        51.8 +j     13.0       53.4       0.9699
8             2        54.4 +j     13.7       56.1       0.9697
8             3        50.4 +j     12.6       51.9       0.9699
   TERMINAL TOTAL .   156.6 +j     39.3      161.4       0.9698
9             1       -51.8 +j    -13.0       53.4       0.9699
9             2       -54.4 +j    -13.7       56.1       0.9697
9             3       -50.4 +j    -12.6       51.9       0.9699
   TERMINAL TOTAL .  -156.6 +j    -39.3      161.4       0.9698

ELEMENT = "Line.LINE9"
9             1        51.8 +j     13.0       53.4       0.9699
9             2        54.4 +j     13.7       56.1       0.9697
9             3        50.4 +j     12.6       51.9       0.9699
   TERMINAL TOTAL .   156.6 +j     39.3      161.4       0.9698
10            1       -51.8 +j    -13.0       53.4       0.9699
10            2       -54.4 +j    -13.7       56.1       0.9698
10            3       -50.4 +j    -12.6       51.9       0.9699
   TERMINAL TOTAL .  -156.6 +j    -39.3      161.4       0.9698

ELEMENT = "Line.LINE10"
10            1        51.8 +j     13.0       53.4       0.9699
10            2        54.4 +j     13.7       56.1       0.9698
10            3        50.4 +j     12.6       51.9       0.9699
   TERMINAL TOTAL .   156.6 +j     39.3      161.4       0.9698
11            1       -51.8 +j    -13.0       53.4       0.9699
11            2       -54.4 +j    -13.7       56.1       0.9698
11            3       -50.3 +j    -12.6       51.9       0.9699
   TERMINAL TOTAL .  -156.5 +j    -39.3      161.4       0.9699

ELEMENT = "Line.LINE11"
11            1        51.8 +j     13.0       53.4       0.9699
11            2        54.4 +j     13.7       56.1       0.9698
11            3        50.3 +j     12.6       51.9       0.9699
   TERMINAL TOTAL .   156.5 +j     39.3      161.4       0.9699
12            1       -51.8 +j    -13.0       53.4       0.9699
12            2       -54.4 +j    -13.7       56.1       0.9698
12            3       -50.3 +j    -12.6       51.9       0.9699
   TERMINAL TOTAL .  -156.5 +j    -39.3      161.4       0.9699

ELEMENT = "Line.LINE12"
12            1        51.8 +j     13.0       53.4       0.9699
12            2        54.4 +j     13.7       56.1       0.9698
12            3        50.3 +j     12.6       51.9       0.9699
   TERMINAL TOTAL .   156.5 +j     39.3      161.4       0.9699
13            1       -51.8 +j    -13.0       53.4       0.9699
13            2       -54.4 +j    -13.7       56.1       0.9698
13            3       -50.3 +j    -12.6       51.9       0.9699
   TERMINAL TOTAL .  -156.5 +j    -39.3      161.4       0.9699

ELEMENT = "Line.LINE13"
13            1        51.8 +j     13.0       53.4       0.9699
13            2        54.4 +j     13.7       56.1       0.9698
13            3        50.3 +j     12.6       51.9       0.9699
   TERMINAL TOTAL .   156.5 +j     39.3      161.4       0.9699
14            1       -51.8 +j    -13.0       53.4       0.9699
14            2       -54.4 +j    -13.7       56.1       0.9698
14            3       -50.3 +j    -12.6       51.9       0.9699
   TERMINAL TOTAL .  -156.5 +j    -39.3      161.4       0.9699

ELEMENT = "Line.LINE14"
14            1        51.8 +j     13.0       53.4       0.9699
14            2        54.4 +j     13.7       56.1       0.9698
14            3        50.3 +j     12.6       51.9       0.9699
   TERMINAL TOTAL .   156.5 +j     39.3      161.4       0.9699
15            1       -51.8 +j    -13.0       53.4       0.9699
15            2       -54.4 +j    -13.7       56.1       0.9698
15            3       -50.3 +j    -12.6       51.9       0.9699
   TERMINAL TOTAL .  -156.5 +j    -39.3      161.4       0.9699

ELEMENT = "Line.LINE15"
14            1        -0.0 +j      0.0        0.0      -0.9979
14            2         0.0 +j      0.0        0.0       0.9712
14            3         0.0 +j     -0.0        0.0      -0.8925
   TERMINAL TOTAL .     0.0 +j      0.0        0.0       1.0000
16            1         0.0 +j     -0.0        0.0      -0.9979
16            2        -0.0 +j     -0.0        0.0       0.9712
16            3        -0.0 +j      0.0        0.0      -0.8925
   TERMINAL TOTAL .    -0.0 +j     -0.0        0.0       1.0000

ELEMENT = "Line.LINE16"
15            1         0.0 +j      0.0        0.0       0.2967
15            2        -0.0 +j     -0.0        0.0       0.9985
15            3         0.0 +j      0.0        0.0       0.0043
   TERMINAL TOTAL .    -0.0 +j      0.0        0.0      -0.3714
17            1        -0.0 +j     -0.0        0.0       0.2967
17            2         0.0 +j      0.0        0.0       0.9985
17            3        -0.0 +j     -0.0        0.0       0.0043
   TERMINAL TOTAL .     0.0 +j     -0.0        0.0      -0.3714

ELEMENT = "Line.LINE17"
15            1        51.8 +j     13.0       53.4       0.9699
15            2        54.4 +j     13.7       56.1       0.9698
15            3        50.3 +j     12.6       51.9       0.9699
   TERMINAL TOTAL .   156.5 +j     39.3      161.4       0.9699
18            1       -51.7 +j    -12.9       53.3       0.9701
18            2       -54.3 +j    -13.6       55.9       0.9700
18            3       -50.2 +j    -12.6       51.8       0.9701
   TERMINAL TOTAL .  -156.2 +j    -39.1      161.0       0.9701

ELEMENT = "Line.LINE18"
15            1         0.0 +j      0.0        0.0       0.8369
15            2        -0.0 +j     -0.0        0.0       0.4473
15            3        -0.0 +j      0.0        0.0      -1.0000
   TERMINAL TOTAL .    -0.0 +j     -0.0        0.0       0.9692
19            1        -0.0 +j     -0.0        0.0       0.8369
19            2         0.0 +j      0.0        0.0       0.4473
19            3         0.0 +j     -0.0        0.0      -1.0000
   TERMINAL TOTAL .     0.0 +j      0.0        0.0       0.9692

ELEMENT = "Line.LINE19"
17            1         0.0 +j      0.0        0.0       0.6544
17            2        -0.0 +j      0.0        0.0      -0.9265
17            3         0.0 +j      0.0        0.0       0.3203
   TERMINAL TOTAL .    -0.0 +j      0.0        0.0      -0.0576
20            1        -0.0 +j     -0.0        0.0       0.6544
20            2         0.0 +j     -0.0        0.0      -0.9265
20            3        -0.0 +j     -0.0        0.0       0.3203
   TERMINAL TOTAL .     0.0 +j     -0.0        0.0      -0.0576

ELEMENT = "Line.LINE20"
18            1        51.7 +j     12.9       53.3       0.9701
18            2        54.3 +j     13.6       55.9       0.9700
18            3        50.2 +j     12.6       51.8       0.9701
   TERMINAL TOTAL .   156.2 +j     39.1      161.0       0.9701
21            1       -51.6 +j    -12.9       53.2       0.9701
21            2       -54.2 +j    -13.6       55.9       0.9701
21            3       -50.2 +j    -12.5       51.8       0.9702
   TERMINAL TOTAL .  -156.1 +j    -39.0      160.9       0.9701

ELEMENT = "Line.LINE21"
18            1         0.0 +j     -0.0        0.0      -0.8635
18            2        -0.0 +j     -0.0        0.0       0.7227
18            3        -0.0 +j     -0.0        0.0       0.0052
   TERMINAL TOTAL .    -0.0 +j     -0.0        0.0       0.0625
22            1        -0.0 +j      0.0        0.0      -0.8635
22            2         0.0 +j      0.0        0.0       0.7227
22            3         0.0 +j      0.0        0.0       0.0052
   TERMINAL TOTAL .     0.0 +j      0.0        0.0       0.0625

ELEMENT = "Line.LINE22"
20            1         0.0 +j      0.0        0.0       0.5238
20            2        -0.0 +j     -0.0        0.0       0.9949
20            3         0.0 +j      0.0        0.0       0.0043
   TERMINAL TOTAL .     0.0 +j      0.0        0.0       0.0592
23            1        -0.0 +j     -0.0        0.0       0.5238
23            2         0.0 +j      0.0        0.0       0.9949
23            3        -0.0 +j     -0.0        0.0       0.0043
   TERMINAL TOTAL .    -0.0 +j     -0.0        0.0       0.0592

ELEMENT = "Line.LINE23"
21            1        51.6 +j     12.9       53.2       0.9701
21            2        54.2 +j     13.6       55.9       0.9701
21            3        50.2 +j     12.5       51.8       0.9702
   TERMINAL TOTAL .   156.1 +j     39.0      160.9       0.9701
24            1       -51.6 +j    -12.9       53.2       0.9702
24            2       -54.2 +j    -13.6       55.9       0.9701
24            3       -50.2 +j    -12.5       51.7       0.9702
   TERMINAL TOTAL .  -156.1 +j    -39.0      160.9       0.9701

ELEMENT = "Line.LINE24"
21            1         0.0 +j     -0.0        0.0      -0.8633
21            2         0.0 +j     -0.0        0.0      -0.1949
21            3         0.0 +j     -0.0        0.0      -0.4423
   TERMINAL TOTAL .     0.0 +j     -0.0        0.0      -0.4608
25            1        -0.0 +j      0.0        0.0      -0.8633
25            2        -0.0 +j      0.0        0.0      -0.1949
25            3        -0.0 +j      0.0        0.0      -0.4423
   TERMINAL TOTAL .    -0.0 +j      0.0        0.0      -0.4608

ELEMENT = "Line.LINE25"
23            1         0.0 +j      0.0        0.0       0.5247
23            2        -0.0 +j      0.0        0.0      -0.9889
23            3        -0.0 +j      0.0        0.0      -0.7040
   TERMINAL TOTAL .    -0.0 +j      0.0        0.0      -0.2732
26            1        -0.0 +j     -0.0        0.0       0.5247
26            2         0.0 +j     -0.0        0.0      -0.9889
26            3         0.0 +j     -0.0        0.0      -0.7040
   TERMINAL TOTAL .     0.0 +j     -0.0        0.0      -0.2732

ELEMENT = "Line.LINE26"
24            1        51.6 +j     12.9       53.2       0.9702
24            2        54.2 +j     13.6       55.9       0.9701
24            3        50.2 +j     12.5       51.7       0.9702
   TERMINAL TOTAL .   156.1 +j     39.0      160.9       0.9701
27            1       -51.6 +j    -12.9       53.2       0.9702
27            2       -54.2 +j    -13.6       55.9       0.9701
27            3       -50.2 +j    -12.5       51.7       0.9702
   TERMINAL TOTAL .  -156.1 +j    -39.0      160.9       0.9702

ELEMENT = "Line.LINE27"
24            1         0.0 +j      0.0        0.0       0.6217
24            2        -0.0 +j      0.0        0.0      -0.1948
24            3        -0.0 +j      0.0        0.0      -1.0000
   TERMINAL TOTAL .    -0.0 +j      0.0        0.0      -0.0254
28            1        -0.0 +j     -0.0        0.0       0.6217
28            2         0.0 +j     -0.0        0.0      -0.1948
28            3         0.0 +j     -0.0        0.0      -1.0000
   TERMINAL TOTAL .     0.0 +j     -0.0        0.0      -0.0254

ELEMENT = "Line.LINE28"
26            1         0.0 +j      0.0        0.0       0.4544
26            2        -0.0 +j      0.0        0.0      -0.9985
26            3        -0.0 +j      0.0        0.0      -0.6213
   TERMINAL TOTAL .    -0.0 +j      0.0        0.0      -0.2326
29            1        -0.0 +j     -0.0        0.0       0.4544
29            2         0.0 +j     -0.0        0.0      -0.9985
29            3         0.0 +j     -0.0        0.0      -0.6213
   TERMINAL TOTAL .     0.0 +j     -0.0        0.0      -0.2326

ELEMENT = "Line.LINE29"
27            1        51.6 +j     12.9       53.2       0.9702
27            2        54.2 +j     13.6       55.9       0.9701
27            3        50.2 +j     12.5       51.7       0.9702
   TERMINAL TOTAL .   156.1 +j     39.0      160.9       0.9702
30            1       -51.6 +j    -12.9       53.2       0.9702
30            2       -54.2 +j    -13.6       55.9       0.9701
30            3       -50.2 +j    -12.5       51.7       0.9702
   TERMINAL TOTAL .  -156.0 +j    -39.0      160.8       0.9702

ELEMENT = "Line.LINE30"
27            1        -0.0 +j      0.0        0.0      -0.3879
27            2        -0.0 +j      0.0        0.0      -0.8938
27            3        -0.0 +j     -0.0        0.0       0.8969
   TERMINAL TOTAL .    -0.0 +j      0.0        0.0      -0.9075
31            1         0.0 +j     -0.0        0.0      -0.3879
31            2         0.0 +j     -0.0        0.0      -0.8938
31            3         0.0 +j      0.0        0.0       0.8969
   TERMINAL TOTAL .     0.0 +j     -0.0        0.0      -0.9075

ELEMENT = "Line.LINE31"
29            1         0.0 +j      0.0        0.0       0.6071
29            2        -0.0 +j     -0.0        0.0       0.9977
29            3        -0.0 +j      0.0        0.0      -0.7564
   TERMINAL TOTAL .    -0.0 +j      0.0        0.0      -0.4137
32            1        -0.0 +j     -0.0        0.0       0.6071
32            2         0.0 +j      0.0        0.0       0.9977
32            3         0.0 +j     -0.0        0.0      -0.7564
   TERMINAL TOTAL .     0.0 +j     -0.0        0.0      -0.4137

ELEMENT = "Line.LINE32"
30            1        51.6 +j     12.9       53.2       0.9702
30            2        54.2 +j     13.6       55.9       0.9701
30            3        50.2 +j     12.5       51.7       0.9702
   TERMINAL TOTAL .   156.0 +j     39.0      160.8       0.9702
33            1       -51.6 +j    -12.9       53.2       0.9702
33            2       -54.2 +j    -13.6       55.9       0.9701
33            3       -50.2 +j    -12.5       51.7       0.9702
   TERMINAL TOTAL .  -156.0 +j    -39.0      160.8       0.9702

ELEMENT = "Line.LINE33"
30            1         0.0 +j      0.0        0.0       0.3775
30            2        -0.0 +j     -0.0        0.0       0.5558
30            3         0.0 +j     -0.0        0.0      -1.0000
   TERMINAL TOTAL .     0.0 +j      0.0        0.0       0.7582
34            1        -0.0 +j     -0.0        0.0       0.3775
34            2         0.0 +j      0.0        0.0       0.5558
34            3        -0.0 +j      0.0        0.0      -1.0000
   TERMINAL TOTAL .    -0.0 +j     -0.0        0.0       0.7582

ELEMENT = "Line.LINE34"
32            1         0.0 +j      0.0        0.0       0.4796
32            2        -0.0 +j     -0.0        0.0       0.9846
32            3         0.0 +j      0.0        0.0       0.4511
   TERMINAL TOTAL .     0.0 +j      0.0        0.0       0.1776
35            1        -0.0 +j     -0.0        0.0       0.4796
35            2         0.0 +j      0.0        0.0       0.9846
35            3        -0.0 +j     -0.0        0.0       0.4511
   TERMINAL TOTAL .    -0.0 +j     -0.0        0.0       0.1776

ELEMENT = "Line.LINE35"
33            1        51.6 +j     12.9       53.2       0.9702
33            2        54.2 +j     13.6       55.9       0.9701
33            3        50.2 +j     12.5       51.7       0.9702
   TERMINAL TOTAL .   156.0 +j     39.0      160.8       0.9702
36            1       -51.6 +j    -12.9       53.2       0.9702
36            2       -54.2 +j    -13.6       55.9       0.9701
36            3       -50.2 +j    -12.5       51.7       0.9702
   TERMINAL TOTAL .  -156.0 +j    -39.0      160.8       0.9702

ELEMENT = "Line.LINE36"
33            1        -0.0 +j     -0.0        0.0       0.9673
33            2        -0.0 +j     -0.0        0.0       0.8689
33            3         0.0 +j     -0.0        0.0      -0.7031
   TERMINAL TOTAL .    -0.0 +j     -0.0        0.0       0.3689
37            1         0.0 +j      0.0        0.0       0.9673
37            2         0.0 +j      0.0        0.0       0.8689
37            3        -0.0 +j      0.0        0.0      -0.7031
   TERMINAL TOTAL .     0.0 +j      0.0        0.0       0.3689

ELEMENT = "Line.LINE37"
35            1         0.0 +j      0.0        0.0       0.2153
35            2        -0.0 +j     -0.0        0.0       0.9935
35            3        -0.0 +j     -0.0        0.0       0.9712
   TERMINAL TOTAL .    -0.0 +j      0.0        0.0      -0.5575
38            1        -0.0 +j     -0.0        0.0       0.2153
38            2         0.0 +j      0.0        0.0       0.9935
38            3         0.0 +j      0.0        0.0       0.9712
   TERMINAL TOTAL .     0.0 +j     -0.0        0.0      -0.5575

ELEMENT = "Line.LINE38"
36            1        51.6 +j     12.9       53.2       0.9702
36            2        54.2 +j     13.6       55.9       0.9701
36            3        50.2 +j     12.5       51.7       0.9702
   TERMINAL TOTAL .   156.0 +j     39.0      160.8       0.9702
39            1       -51.6 +j    -12.9       53.2       0.9702
39            2       -54.2 +j    -13.6       55.9       0.9701
39            3       -50.2 +j    -12.5       51.7       0.9702
   TERMINAL TOTAL .  -156.0 +j    -39.0      160.8       0.9702

ELEMENT = "Line.LINE39"
36            1        -0.0 +j     -0.0        0.0       0.0653
36            2         0.0 +j      0.0        0.0       0.8689
36            3        -0.0 +j     -0.0        0.0       0.0056
   TERMINAL TOTAL .     0.0 +j     -0.0        0.0      -0.4379
40            1         0.0 +j      0.0        0.0       0.0653
40            2        -0.0 +j     -0.0        0.0       0.8689
40            3         0.0 +j      0.0        0.0       0.0056
   TERMINAL TOTAL .    -0.0 +j      0.0        0.0      -0.4379

ELEMENT = "Line.LINE40"
38            1         0.0 +j      0.0        0.0       0.1748
38            2        -0.0 +j      0.0        0.0      -0.9274
38            3         0.0 +j     -0.0        0.0      -0.9797
   TERMINAL TOTAL .     0.0 +j      0.0        0.0       0.1325
41            1        -0.0 +j     -0.0        0.0       0.1748
41            2         0.0 +j     -0.0        0.0      -0.9274
41            3        -0.0 +j      0.0        0.0      -0.9797
   TERMINAL TOTAL .    -0.0 +j     -0.0        0.0       0.1325

ELEMENT = "Line.LINE41"
39            1        51.6 +j     12.9       53.2       0.9702
39            2        54.2 +j     13.6       55.9       0.9701
39            3        50.2 +j     12.5       51.7       0.9702
   TERMINAL TOTAL .   156.0 +j     39.0      160.8       0.9702
42            1       -51.6 +j    -12.9       53.2       0.9702
42            2       -54.2 +j    -13.6       55.9       0.9701
42            3       -50.2 +j    -12.5       51.7       0.9703
   TERMINAL TOTAL .  -156.0 +j    -39.0      160.8       0.9702

ELEMENT = "Line.LINE42"
39            1        -0.0 +j      0.0        0.0      -0.2536
39            2         0.0 +j      0.0        0.0       0.7229
39            3        -0.0 +j      0.0        0.0      -0.7031
   TERMINAL TOTAL .    -0.0 +j      0.0        0.0      -0.1759
43            1         0.0 +j     -0.0        0.0      -0.2536
43            2        -0.0 +j     -0.0        0.0       0.7229
43            3         0.0 +j     -0.0        0.0      -0.7031
   TERMINAL TOTAL .     0.0 +j     -0.0        0.0      -0.1759

ELEMENT = "Line.LINE43"
41            1         0.0 +j      0.0        0.0       0.2402
41            2        -0.0 +j      0.0        0.0      -0.9360
41            3         0.0 +j      0.0        0.0       0.9378
   TERMINAL TOTAL .     0.0 +j      0.0        0.0       0.1820
44            1        -0.0 +j     -0.0        0.0       0.2402
44            2         0.0 +j     -0.0        0.0      -0.9360
44            3        -0.0 +j     -0.0        0.0       0.9378
   TERMINAL TOTAL .    -0.0 +j     -0.0        0.0       0.1820

ELEMENT = "Line.LINE44"
42            1         0.0 +j      0.0        0.0       0.6890
42            2        -0.0 +j     -0.0        0.0       0.7758
42            3         0.0 +j     -0.0        0.0      -1.0000
   TERMINAL TOTAL .     0.0 +j      0.0        0.0       0.7994
45            1        -0.0 +j     -0.0        0.0       0.6890
45            2         0.0 +j      0.0        0.0       0.7758
45            3        -0.0 +j      0.0        0.0      -1.0000
   TERMINAL TOTAL .    -0.0 +j     -0.0        0.0       0.7994

ELEMENT = "Line.LINE45"
42            1         0.0 +j      0.0        0.0       0.9125
42            2         0.0 +j      0.0        0.0       0.9906
42            3        -0.0 +j      0.0        0.0      -1.0000
   TERMINAL TOTAL .     0.0 +j      0.0        0.0       0.9064
46            1        -0.0 +j     -0.0        0.0       0.9125
46            2        -0.0 +j     -0.0        0.0       0.9906
46            3         0.0 +j     -0.0        0.0      -1.0000
   TERMINAL TOTAL .    -0.0 +j     -0.0        0.0       0.9064

ELEMENT = "Line.LINE46"
42            1        27.1 +j      8.9       28.5       0.9497
42            2        42.2 +j      9.6       43.2       0.9751
42            3        45.2 +j     10.9       46.5       0.9722
   TERMINAL TOTAL .   114.5 +j     29.4      118.2       0.9686
47            1       -27.1 +j     -8.9       28.5       0.9497
47            2       -42.2 +j     -9.6       43.2       0.9751
47            3       -45.2 +j    -10.9       46.5       0.9722
   TERMINAL TOTAL .  -114.5 +j    -29.4      118.2       0.9686

ELEMENT = "Line.LINE47"
42            1        24.5 +j      4.0       24.8       0.9872
42            2        12.0 +j      4.0       12.7       0.9494
42            3         5.0 +j      1.6        5.3       0.9503
   TERMINAL TOTAL .    41.6 +j      9.6       42.6       0.9745
48            1       -24.5 +j     -4.0       24.8       0.9872
48            2       -12.0 +j     -4.0       12.7       0.9494
48            3        -5.0 +j     -1.6        5.3       0.9503
   TERMINAL TOTAL .   -41.6 +j     -9.6       42.6       0.9745

ELEMENT = "Line.LINE48"
44            1         0.0 +j      0.0        0.0       0.2806
44            2        -0.0 +j      0.0        0.0      -0.9436
44            3         0.0 +j      0.0        0.0       0.9283
   TERMINAL TOTAL .     0.0 +j      0.0        0.0       0.1962
49            1        -0.0 +j     -0.0        0.0       0.2806
49            2         0.0 +j     -0.0        0.0      -0.9436
49            3        -0.0 +j     -0.0        0.0       0.9283
   TERMINAL TOTAL .    -0.0 +j     -0.0        0.0       0.1962

ELEMENT = "Line.LINE49"
45            1         0.0 +j      0.0        0.0       0.6398
45            2         0.0 +j      0.0        0.0       0.9745
45            3         0.0 +j      0.0        0.0       0.8969
   TERMINAL TOTAL .     0.0 +j      0.0        0.0       0.8956
50            1        -0.0 +j     -0.0        0.0       0.6398
50            2        -0.0 +j     -0.0        0.0       0.9745
50            3        -0.0 +j     -0.0        0.0       0.8969
   TERMINAL TOTAL .    -0.0 +j     -0.0        0.0       0.8956

ELEMENT = "Line.LINE50"
45            1         0.0 +j      0.0        0.0       0.6398
45            2         0.0 +j      0.0        0.0       0.9745
45            3         0.0 +j      0.0        0.0       0.8969
   TERMINAL TOTAL .     0.0 +j      0.0        0.0       0.8956
51            1        -0.0 +j     -0.0        0.0       0.6398
51            2        -0.0 +j     -0.0        0.0       0.9745
51            3        -0.0 +j     -0.0        0.0       0.8969
   TERMINAL TOTAL .    -0.0 +j     -0.0        0.0       0.8956

ELEMENT = "Line.LINE51"
47            1        27.1 +j      8.9       28.5       0.9497
47            2        42.2 +j      9.6       43.2       0.9751
47            3        45.2 +j     10.9       46.5       0.9722
   TERMINAL TOTAL .   114.5 +j     29.4      118.2       0.9686
52            1       -27.1 +j     -8.9       28.5       0.9497
52            2       -42.2 +j     -9.6       43.2       0.9751
52            3       -45.2 +j    -10.9       46.5       0.9722
   TERMINAL TOTAL .  -114.5 +j    -29.4      118.2       0.9686

ELEMENT = "Line.LINE52"
48            1         0.0 +j      0.0        0.0       0.9217
48            2         0.0 +j      0.0        0.0       0.2333
48            3         0.0 +j      0.0        0.0       0.9083
   TERMINAL TOTAL .     0.0 +j      0.0        0.0       0.7980
53            1        -0.0 +j     -0.0        0.0       0.9217
53            2        -0.0 +j     -0.0        0.0       0.2333
53            3        -0.0 +j     -0.0        0.0       0.9083
   TERMINAL TOTAL .    -0.0 +j     -0.0        0.0       0.7980

ELEMENT = "Line.LINE53"
48            1        24.5 +j      4.0       24.8       0.9872
48            2        12.0 +j      4.0       12.7       0.9494
48            3         5.0 +j      1.6        5.3       0.9503
   TERMINAL TOTAL .    41.6 +j      9.6       42.6       0.9745
54            1       -24.5 +j     -4.0       24.8       0.9872
54            2       -12.0 +j     -4.0       12.7       0.9494
54            3        -5.0 +j     -1.6        5.3       0.9503
   TERMINAL TOTAL .   -41.5 +j     -9.6       42.6       0.9745

ELEMENT = "Line.LINE54"
48            1         0.0 +j      0.0        0.0       0.2803
48            2        -0.0 +j      0.0        0.0      -0.9644
48            3        -0.0 +j      0.0        0.0      -0.8919
   TERMINAL TOTAL .    -0.0 +j      0.0        0.0      -0.5511
55            1        -0.0 +j     -0.0        0.0       0.2803
55            2         0.0 +j     -0.0        0.0      -0.9644
55            3         0.0 +j     -0.0        0.0      -0.8919
   TERMINAL TOTAL .     0.0 +j     -0.0        0.0      -0.5511

ELEMENT = "Line.LINE55"
49            1         0.0 +j      0.0        0.0       0.2917
49            2        -0.0 +j      0.0        0.0      -0.9464
49            3         0.0 +j      0.0        0.0       0.9156
   TERMINAL TOTAL .     0.0 +j      0.0        0.0       0.1972
...