Smart_Charging/1_Grid_Model/Grid_model_Power_seq_kVA.txt

SYMMETRICAL COMPONENT POWERS BY CIRCUIT ELEMENT (first 3 phases)                                     Excess Power

Element                       Term    P1(kW)   Q1(kvar)       P2         Q2      P0      Q0       P_Norm      Q_Norm     P_Emerg    Q_Emerg

"Vsource.SOURCE"               1     -156.7      -39.7        0.0        0.0    -0.0    -0.0
"Vsource.SOURCE"               2        0.0        0.0        0.0        0.0     0.0     0.0
"Line.LINE1"                   1      156.6       39.4       -0.0       -0.0    -0.0    -0.0        0.0        0.0        0.0        0.0
"Line.LINE1"                   2     -156.6      -39.4        0.0        0.0     0.0     0.0
"Line.LINE2"                   1      156.6       39.4       -0.0       -0.0    -0.0    -0.0        0.0        0.0        0.0        0.0
"Line.LINE2"                   2     -156.6      -39.4        0.0        0.0     0.0     0.0
"Line.LINE3"                   1      156.6       39.4       -0.0       -0.0    -0.0    -0.0        0.0        0.0        0.0        0.0
"Line.LINE3"                   2     -156.6      -39.4        0.0        0.0     0.0     0.0
"Line.LINE4"                   1      156.6       39.4       -0.0       -0.0    -0.0    -0.0        0.0        0.0        0.0        0.0
"Line.LINE4"                   2     -156.6      -39.3        0.0        0.0     0.0     0.0
"Line.LINE5"                   1      156.6       39.3       -0.0       -0.0    -0.0    -0.0        0.0        0.0        0.0        0.0
"Line.LINE5"                   2     -156.6      -39.3        0.0        0.0     0.0     0.0
"Line.LINE6"                   1      156.6       39.3       -0.0       -0.0    -0.0    -0.0        0.0        0.0        0.0        0.0
"Line.LINE6"                   2     -156.6      -39.3        0.0        0.0     0.0     0.0
"Line.LINE7"                   1      156.6       39.3       -0.0       -0.0    -0.0    -0.0        0.0        0.0        0.0        0.0
"Line.LINE7"                   2     -156.6      -39.3        0.0        0.0     0.0     0.0
"Line.LINE8"                   1      156.6       39.3       -0.0       -0.0    -0.0    -0.0        0.0        0.0        0.0        0.0
"Line.LINE8"                   2     -156.6      -39.3        0.0        0.0     0.0     0.0
"Line.LINE9"                   1      156.6       39.3       -0.0       -0.0    -0.0    -0.0        0.0        0.0        0.0        0.0
"Line.LINE9"                   2     -156.6      -39.3        0.0        0.0     0.0     0.0
"Line.LINE10"                  1      156.6       39.3       -0.0       -0.0    -0.0    -0.0        0.0        0.0        0.0        0.0
"Line.LINE10"                  2     -156.5      -39.3        0.0        0.0     0.0     0.0
"Line.LINE11"                  1      156.5       39.3       -0.0       -0.0    -0.0    -0.0        0.0        0.0        0.0        0.0
"Line.LINE11"                  2     -156.5      -39.3        0.0        0.0     0.0     0.0
"Line.LINE12"                  1      156.5       39.3       -0.0       -0.0    -0.0    -0.0        0.0        0.0        0.0        0.0
"Line.LINE12"                  2     -156.5      -39.3        0.0        0.0     0.0     0.0
"Line.LINE13"                  1      156.5       39.3       -0.0       -0.0    -0.0    -0.0        0.0        0.0        0.0        0.0
"Line.LINE13"                  2     -156.5      -39.3        0.0        0.0     0.0     0.0
"Line.LINE14"                  1      156.5       39.3       -0.0       -0.0    -0.0    -0.0        0.0        0.0        0.0        0.0
"Line.LINE14"                  2     -156.5      -39.3        0.0        0.0     0.0     0.0
"Line.LINE15"                  1        0.0        0.0       -0.0        0.0     0.0    -0.0        0.0        0.0        0.0        0.0
"Line.LINE15"                  2       -0.0       -0.0        0.0       -0.0    -0.0     0.0
"Line.LINE16"                  1       -0.0        0.0        0.0        0.0    -0.0     0.0        0.0        0.0        0.0        0.0
"Line.LINE16"                  2        0.0       -0.0       -0.0       -0.0     0.0    -0.0
"Line.LINE17"                  1      156.5       39.3       -0.0       -0.0    -0.0    -0.0        0.0        0.0        0.0        0.0
"Line.LINE17"                  2     -156.2      -39.1        0.0        0.0     0.0     0.0
"Line.LINE18"                  1       -0.0       -0.0        0.0       -0.0    -0.0     0.0        0.0        0.0        0.0        0.0
"Line.LINE18"                  2        0.0        0.0       -0.0        0.0     0.0    -0.0
"Line.LINE19"                  1       -0.0        0.0        0.0        0.0     0.0     0.0        0.0        0.0        0.0        0.0
"Line.LINE19"                  2        0.0       -0.0       -0.0       -0.0    -0.0    -0.0
"Line.LINE20"                  1      156.2       39.1       -0.0       -0.0    -0.0    -0.0        0.0        0.0        0.0        0.0
"Line.LINE20"                  2     -156.1      -39.0        0.0        0.0     0.0     0.0
"Line.LINE21"                  1       -0.0       -0.0        0.0        0.0     0.0     0.0        0.0        0.0        0.0        0.0
"Line.LINE21"                  2        0.0        0.0       -0.0       -0.0    -0.0    -0.0
"Line.LINE22"                  1        0.0        0.0        0.0        0.0    -0.0     0.0        0.0        0.0        0.0        0.0
"Line.LINE22"                  2       -0.0       -0.0       -0.0       -0.0     0.0    -0.0
"Line.LINE23"                  1      156.1       39.0       -0.0       -0.0    -0.0    -0.0        0.0        0.0        0.0        0.0
"Line.LINE23"                  2     -156.1      -39.0        0.0        0.0     0.0     0.0
"Line.LINE24"                  1        0.0       -0.0        0.0        0.0    -0.0    -0.0        0.0        0.0        0.0        0.0
"Line.LINE24"                  2       -0.0        0.0       -0.0       -0.0     0.0     0.0
"Line.LINE25"                  1       -0.0        0.0        0.0        0.0    -0.0     0.0        0.0        0.0        0.0        0.0
"Line.LINE25"                  2        0.0       -0.0       -0.0       -0.0     0.0    -0.0
"Line.LINE26"                  1      156.1       39.0       -0.0       -0.0    -0.0    -0.0        0.0        0.0        0.0        0.0
"Line.LINE26"                  2     -156.1      -39.0        0.0        0.0     0.0     0.0
"Line.LINE27"                  1       -0.0        0.0        0.0       -0.0    -0.0     0.0        0.0        0.0        0.0        0.0
"Line.LINE27"                  2        0.0       -0.0       -0.0        0.0     0.0    -0.0
"Line.LINE28"                  1       -0.0        0.0        0.0        0.0    -0.0     0.0        0.0        0.0        0.0        0.0
"Line.LINE28"                  2        0.0       -0.0       -0.0       -0.0     0.0    -0.0
"Line.LINE29"                  1      156.1       39.0       -0.0       -0.0    -0.0    -0.0        0.0        0.0        0.0        0.0
"Line.LINE29"                  2     -156.0      -39.0        0.0        0.0     0.0     0.0
"Line.LINE30"                  1       -0.0        0.0        0.0        0.0    -0.0    -0.0        0.0        0.0        0.0        0.0
"Line.LINE30"                  2        0.0       -0.0       -0.0       -0.0     0.0     0.0
"Line.LINE31"                  1       -0.0        0.0        0.0        0.0    -0.0     0.0        0.0        0.0        0.0        0.0
"Line.LINE31"                  2        0.0       -0.0       -0.0       -0.0     0.0    -0.0
"Line.LINE32"                  1      156.0       39.0       -0.0       -0.0    -0.0    -0.0        0.0        0.0        0.0        0.0
"Line.LINE32"                  2     -156.0      -39.0        0.0        0.0     0.0     0.0
"Line.LINE33"                  1        0.0        0.0        0.0        0.0    -0.0     0.0        0.0        0.0        0.0        0.0
"Line.LINE33"                  2       -0.0       -0.0       -0.0       -0.0     0.0    -0.0
"Line.LINE34"                  1        0.0        0.0        0.0        0.0    -0.0     0.0        0.0        0.0        0.0        0.0
"Line.LINE34"                  2       -0.0       -0.0       -0.0       -0.0     0.0    -0.0
"Line.LINE35"                  1      156.0       39.0       -0.0       -0.0    -0.0    -0.0        0.0        0.0        0.0        0.0
"Line.LINE35"                  2     -156.0      -39.0        0.0        0.0     0.0     0.0
"Line.LINE36"                  1       -0.0       -0.0        0.0        0.0     0.0    -0.0        0.0        0.0        0.0        0.0
"Line.LINE36"                  2        0.0        0.0       -0.0       -0.0    -0.0     0.0
"Line.LINE37"                  1       -0.0        0.0        0.0        0.0    -0.0     0.0        0.0        0.0        0.0        0.0
"Line.LINE37"                  2        0.0       -0.0       -0.0       -0.0     0.0    -0.0
"Line.LINE38"                  1      156.0       39.0       -0.0       -0.0    -0.0    -0.0        0.0        0.0        0.0        0.0
"Line.LINE38"                  2     -156.0      -39.0        0.0        0.0     0.0     0.0
"Line.LINE39"                  1        0.0       -0.0       -0.0       -0.0    -0.0    -0.0        0.0        0.0        0.0        0.0
"Line.LINE39"                  2       -0.0        0.0        0.0        0.0     0.0     0.0
"Line.LINE40"                  1        0.0        0.0        0.0        0.0    -0.0    -0.0        0.0        0.0        0.0        0.0
"Line.LINE40"                  2       -0.0       -0.0       -0.0       -0.0     0.0     0.0
"Line.LINE41"                  1      156.0       39.0       -0.0       -0.0    -0.0    -0.0        0.0        0.0        0.0        0.0
"Line.LINE41"                  2     -156.0      -39.0        0.0        0.0     0.0     0.0
"Line.LINE42"                  1       -0.0        0.0       -0.0       -0.0    -0.0     0.0        0.0        0.0        0.0        0.0
"Line.LINE42"                  2        0.0       -0.0        0.0        0.0     0.0    -0.0
"Line.LINE43"                  1        0.0        0.0        0.0        0.0    -0.0     0.0        0.0        0.0        0.0        0.0
"Line.LINE43"                  2       -0.0       -0.0       -0.0       -0.0     0.0    -0.0
"Line.LINE44"                  1        0.0        0.0        0.0        0.0    -0.0     0.0        0.0        0.0        0.0        0.0
"Line.LINE44"                  2       -0.0       -0.0       -0.0       -0.0     0.0    -0.0
"Line.LINE45"                  1        0.0        0.0        0.0       -0.0    -0.0     0.0        0.0        0.0        0.0        0.0
"Line.LINE45"                  2       -0.0       -0.0       -0.0        0.0     0.0    -0.0
"Line.LINE46"                  1      114.5       29.4       -0.0        0.0     0.0    -0.0        0.0        0.0        0.0        0.0
"Line.LINE46"                  2     -114.5      -29.4        0.0       -0.0    -0.0     0.0
"Line.LINE47"                  1       41.6        9.6        0.0       -0.0    -0.0     0.0        0.0        0.0        0.0        0.0
"Line.LINE47"                  2      -41.6       -9.6       -0.0        0.0     0.0    -0.0
"Line.LINE48"                  1        0.0        0.0        0.0        0.0    -0.0     0.0        0.0        0.0        0.0        0.0
"Line.LINE48"                  2       -0.0       -0.0       -0.0       -0.0     0.0    -0.0
"Line.LINE49"                  1        0.0        0.0       -0.0        0.0    -0.0    -0.0        0.0        0.0        0.0        0.0
"Line.LINE49"                  2       -0.0       -0.0        0.0       -0.0     0.0     0.0
"Line.LINE50"                  1        0.0        0.0       -0.0        0.0    -0.0    -0.0        0.0        0.0        0.0        0.0
"Line.LINE50"                  2       -0.0       -0.0        0.0       -0.0     0.0     0.0
"Line.LINE51"                  1      114.5       29.4       -0.0        0.0     0.0    -0.0        0.0        0.0        0.0        0.0
"Line.LINE51"                  2     -114.5      -29.4        0.0       -0.0    -0.0     0.0
"Line.LINE52"                  1        0.0        0.0        0.0        0.0     0.0    -0.0        0.0        0.0        0.0        0.0
"Line.LINE52"                  2       -0.0       -0.0       -0.0       -0.0    -0.0     0.0
"Line.LINE53"                  1       41.6        9.6        0.0       -0.0    -0.0     0.0        0.0        0.0        0.0        0.0
"Line.LINE53"                  2      -41.6       -9.6       -0.0        0.0     0.0    -0.0
"Line.LINE54"                  1       -0.0        0.0        0.0       -0.0    -0.0     0.0        0.0        0.0        0.0        0.0
"Line.LINE54"                  2        0.0       -0.0       -0.0        0.0     0.0    -0.0
"Line.LINE55"                  1        0.0        0.0        0.0        0.0    -0.0     0.0        0.0        0.0        0.0        0.0
"Line.LINE55"                  2       -0.0       -0.0       -0.0       -0.0     0.0    -0.0
"Line.LINE56"                  1      114.5       29.4       -0.0        0.0     0.0    -0.0        0.0        0.0        0.0        0.0
"Line.LINE56"                  2     -114.5      -29.4        0.0       -0.0     0.0     0.0
"Line.LINE57"                  1        0.0        0.0        0.0        0.0     0.0    -0.0        0.0        0.0        0.0        0.0
"Line.LINE57"                  2       -0.0       -0.0       -0.0       -0.0    -0.0     0.0
"Line.LINE58"                  1       -0.0       -0.0       -0.0       -0.0     0.0    -0.0        0.0        0.0        0.0        0.0
"Line.LINE58"                  2        0.0        0.0        0.0        0.0    -0.0     0.0
"Line.LINE59"                  1       41.6        9.6        0.0       -0.0    -0.0     0.0        0.0        0.0        0.0        0.0
"Line.LINE59"                  2      -41.5       -9.6       -0.0        0.0     0.0    -0.0
"Line.LINE60"                  1        0.0        0.0        0.0        0.0    -0.0     0.0        0.0        0.0        0.0        0.0
"Line.LINE60"                  2       -0.0       -0.0       -0.0       -0.0     0.0    -0.0
"Line.LINE61"                  1      114.5       29.4       -0.0        0.0    -0.0    -0.0        0.0        0.0        0.0        0.0
"Line.LINE61"                  2     -114.4      -29.4        0.0       -0.0     0.0     0.0
"Line.LINE62"                  1        0.0        0.0        0.0       -0.0     0.0    -0.0        0.0        0.0        0.0        0.0
"Line.LINE62"                  2       -0.0       -0.0       -0.0        0.0    -0.0     0.0
"Line.LINE63"                  1       -0.0       -0.0       -0.0       -0.0     0.0    -0.0        0.0        0.0        0.0        0.0
"Line.LINE63"                  2        0.0        0.0        0.0        0.0    -0.0     0.0
"Line.LINE64"                  1       41.5        9.6        0.0       -0.0    -0.0     0.0        0.0        0.0        0.0        0.0
"Line.LINE64"                  2      -41.5       -9.6       -0.0        0.0     0.0    -0.0
"Line.LINE65"                  1        0.0        0.0        0.0        0.0    -0.0     0.0        0.0        0.0        0.0        0.0
"Line.LINE65"                  2       -0.0       -0.0       -0.0       -0.0     0.0    -0.0
"Line.LINE66"                  1      112.4       28.7       -0.0        0.0    -0.0    -0.0        0.0        0.0        0.0        0.0
"Line.LINE66"                  2     -112.4      -28.7        0.0       -0.0     0.0     0.0
"Line.LINE67"                  1        1.0        0.3       -0.0        0.0     0.0    -0.0        0.0        0.0        0.0        0.0
"Line.LINE67"                  2       -1.0       -0.3        0.0       -0.0    -0.0     0.0
"Line.LINE68"                  1        1.0        0.3        0.0       -0.0     0.0     0.0        0.0        0.0        0.0        0.0
"Line.LINE68"                  2       -1.0       -0.3       -0.0        0.0    -0.0    -0.0
"Line.LINE69"                  1        0.0        0.0       -0.0        0.0     0.0    -0.0        0.0        0.0        0.0        0.0
"Line.LINE69"                  2       -0.0       -0.0        0.0       -0.0    -0.0     0.0
"Line.LINE70"                  1        0.0        0.0        0.0       -0.0    -0.0     0.0        0.0        0.0        0.0        0.0
"Line.LINE70"                  2       -0.0       -0.0       -0.0        0.0     0.0    -0.0
"Line.LINE71"                  1       41.5        9.6        0.0       -0.0    -0.0     0.0        0.0        0.0        0.0        0.0
"Line.LINE71"                  2      -41.5       -9.6       -0.0        0.0     0.0    -0.0
"Line.LINE72"                  1        0.0        0.0        0.0        0.0    -0.0     0.0        0.0        0.0        0.0        0.0
"Line.LINE72"                  2       -0.0       -0.0       -0.0       -0.0     0.0    -0.0
"Line.LINE73"                  1      112.4       28.7       -0.0        0.0    -0.0    -0.0        0.0        0.0        0.0        0.0
"Line.LINE73"                  2     -112.3      -28.7        0.0       -0.0     0.0     0.0
"Line.LINE74"                  1        1.0        0.3       -0.0        0.0     0.0    -0.0        0.0        0.0        0.0        0.0
"Line.LINE74"                  2       -1.0       -0.3        0.0       -0.0    -0.0     0.0
"Line.LINE75"                  1        1.0        0.3        0.0       -0.0     0.0     0.0        0.0        0.0        0.0        0.0
"Line.LINE75"                  2       -1.0       -0.3       -0.0        0.0    -0.0    -0.0
"Line.LINE76"                  1        0.0        0.0       -0.0        0.0     0.0    -0.0        0.0        0.0        0.0        0.0
"Line.LINE76"                  2       -0.0       -0.0        0.0       -0.0    -0.0     0.0
"Line.LINE77"                  1       -0.0        0.0       -0.0       -0.0    -0.0    -0.0        0.0        0.0        0.0        0.0
"Line.LINE77"                  2        0.0       -0.0        0.0        0.0     0.0     0.0
"Line.LINE78"                  1       41.5        9.6        0.0       -0.0    -0.0     0.0        0.0        0.0        0.0        0.0
"Line.LINE78"                  2      -41.5       -9.6       -0.0        0.0     0.0    -0.0
"Line.LINE79"                  1        0.0        0.0        0.0        0.0    -0.0     0.0        0.0        0.0        0.0        0.0
"Line.LINE79"                  2       -0.0       -0.0       -0.0       -0.0     0.0    -0.0
"Line.LINE80"                  1      112.3       28.7       -0.0        0.0    -0.0    -0.0        0.0        0.0        0.0        0.0
"Line.LINE80"                  2     -112.3      -28.7        0.0       -0.0     0.0     0.0
"Line.LINE81"                  1        1.0        0.3       -0.0        0.0     0.0    -0.0        0.0        0.0        0.0        0.0
"Line.LINE81"                  2       -1.0       -0.3        0.0       -0.0    -0.0     0.0
"Line.LINE82"                  1        1.0        0.3        0.0       -0.0     0.0     0.0        0.0        0.0        0.0        0.0
"Line.LINE82"                  2       -1.0       -0.3       -0.0        0.0    -0.0    -0.0
"Line.LINE83"                  1        0.0        0.0       -0.0        0.0     0.0    -0.0        0.0        0.0        0.0        0.0
"Line.LINE83"                  2       -0.0       -0.0        0.0       -0.0    -0.0     0.0
"Line.LINE84"                  1       -0.0        0.0        0.0        0.0    -0.0    -0.0        0.0        0.0        0.0        0.0
"Line.LINE84"                  2        0.0       -0.0       -0.0       -0.0     0.0     0.0
"Line.LINE85"                  1       41.5        9.6        0.0       -0.0    -0.0     0.0        0.0        0.0        0.0        0.0
"Line.LINE85"                  2      -41.5       -9.6       -0.0        0.0     0.0    -0.0
"Line.LINE86"                  1        0.0        0.0        0.0        0.0    -0.0     0.0        0.0        0.0        0.0        0.0
"Line.LINE86"                  2       -0.0       -0.0       -0.0       -0.0     0.0    -0.0
"Line.LINE87"                  1        1.0        0.3       -0.0       -0.0    -0.0     0.0        0.0        0.0        0.0        0.0
"Line.LINE87"                  2       -1.0       -0.3        0.0        0.0     0.0    -0.0
"Line.LINE88"                  1        1.0        0.3        0.0        0.0     0.0     0.0        0.0        0.0        0.0        0.0
"Line.LINE88"                  2       -1.0       -0.3       -0.0       -0.0    -0.0    -0.0
"Line.LINE89"                  1      110.3       28.0       -0.0        0.0    -0.0    -0.0        0.0        0.0        0.0        0.0
"Line.LINE89"                  2     -110.3      -28.0        0.0       -0.0     0.0     0.0
"Line.LINE90"                  1        1.0        0.3       -0.0        0.0     0.0    -0.0        0.0        0.0        0.0        0.0
"Line.LINE90"                  2       -1.0       -0.3        0.0       -0.0    -0.0     0.0
"Line.LINE91"                  1        1.0        0.3        0.0       -0.0     0.0     0.0        0.0        0.0        0.0        0.0
"Line.LINE91"                  2       -1.0       -0.3       -0.0        0.0    -0.0    -0.0
"Line.LINE92"                  1        0.0        0.0       -0.0        0.0     0.0    -0.0        0.0        0.0        0.0        0.0
"Line.LINE92"                  2       -0.0       -0.0        0.0       -0.0    -0.0     0.0
"Line.LINE93"                  1       -0.0        0.0       -0.0        0.0    -0.0     0.0        0.0        0.0        0.0        0.0
"Line.LINE93"                  2        0.0       -0.0        0.0       -0.0     0.0    -0.0
"Line.LINE94"                  1       41.5        9.6        0.0       -0.0    -0.0     0.0        0.0        0.0        0.0        0.0
"Line.LINE94"                  2      -41.5       -9.6       -0.0        0.0     0.0    -0.0
"Line.LINE95"                  1        0.0        0.0        0.0        0.0    -0.0     0.0        0.0        0.0        0.0        0.0
"Line.LINE95"                  2       -0.0       -0.0       -0.0       -0.0     0.0    -0.0
"Line.LINE96"                  1        1.0        0.3       -0.0       -0.0    -0.0     0.0        0.0        0.0        0.0        0.0
"Line.LINE96"                  2       -1.0       -0.3        0.0        0.0     0.0    -0.0
"Line.LINE97"                  1        1.0        0.3        0.0        0.0     0.0     0.0        0.0        0.0        0.0        0.0
"Line.LINE97"                  2       -1.0       -0.3       -0.0       -0.0    -0.0    -0.0
"Line.LINE98"                  1      110.3       28.0       -0.0        0.0    -0.0    -0.0        0.0        0.0        0.0        0.0
"Line.LINE98"                  2     -110.0      -27.9        0.0        0.0     0.0     0.0
"Line.LINE99"                  1        0.0       -0.0        0.0       -0.0     0.0     0.0        0.0        0.0        0.0        0.0
"Line.LINE99"                  2       -0.0        0.0       -0.0        0.0    -0.0    -0.0
"Line.LINE100"                 1        1.0        0.3       -0.0        0.0     0.0    -0.0        0.0        0.0        0.0        0.0
"Line.LINE100"                 2       -1.0       -0.3        0.0       -0.0    -0.0     0.0
...
"Transformer.TR1"              1      156.7       39.7       -0.0       -0.0     0.0    -0.0        0.0        0.0        0.0        0.0
"Transformer.TR1"              2     -156.6      -39.4        0.0        0.0     0.0     0.0
"Load.LOAD_1"                  1        0.0        0.0        0.0        0.0     0.0     0.0
"Load.LOAD_2"                  1        0.0        0.0        0.0        0.0     0.0     0.0
"Load.LOAD_3"                  1        0.0        0.0        0.0        0.0     0.0     0.0
"Load.LOAD_4"                  1        0.0        0.0        0.0        0.0     0.0     0.0
"Load.LOAD_5"                  1        0.0        0.0        0.0        0.0     0.0     0.0
"Load.LOAD_6"                  1        0.0        0.0        0.0        0.0     0.0     0.0
"Load.LOAD_7"                  1        0.0        0.0        0.0        0.0     0.0     0.0
"Load.LOAD_8"                  1        0.0        0.0        0.0        0.0     0.0     0.0
"Load.LOAD_9"                  1        0.0        0.0        0.0        0.0     0.0     0.0
"Load.LOAD_10"                 1        0.0        0.0        0.0        0.0     0.0     0.0
"Load.LOAD_11"                 1        0.0        0.0        0.0        0.0     0.0     0.0
"Load.LOAD_12"                 1        0.0        0.0        0.0        0.0     0.0     0.0
"Load.LOAD_13"                 1        0.0        0.0        0.0        0.0     0.0     0.0
"Load.LOAD_14"                 1        0.0        0.0        0.0        0.0     0.0     0.0
"Load.LOAD_15"                 1        0.0        0.0        0.0        0.0     0.0     0.0
"Load.LOAD_16"                 1        0.0        0.0        0.0        0.0     0.0     0.0
"Load.LOAD_17"                 1        0.0        0.0        0.0        0.0     0.0     0.0
"Load.LOAD_18"                 1        0.0        0.0        0.0        0.0     0.0     0.0
"Load.LOAD_19"                 1        0.0        0.0        0.0        0.0     0.0     0.0
"Load.LOAD_20"                 1        0.0        0.0        0.0        0.0     0.0     0.0
"Load.LOAD_21"                 1        0.0        0.0        0.0        0.0     0.0     0.0
"Load.LOAD_22"                 1        0.0        0.0        0.0        0.0     0.0     0.0
"Load.LOAD_23"                 1        0.0        0.0        0.0        0.0     0.0     0.0
"Load.LOAD_24"                 1        0.0        0.0        0.0        0.0     0.0     0.0
"Load.LOAD_25"                 1        0.0        0.0        0.0        0.0     0.0     0.0
"Load.LOAD_26"                 1        0.0        0.0        0.0        0.0     0.0     0.0
"Load.LOAD_27"                 1        0.0        0.0        0.0        0.0     0.0     0.0
"Load.LOAD_28"                 1        0.0        0.0        0.0        0.0     0.0     0.0
"Load.LOAD_29"                 1        0.0        0.0        0.0        0.0     0.0     0.0
"Load.LOAD_30"                 1        0.0        0.0        0.0        0.0     0.0     0.0
"Load.LOAD_31"                 1        0.0        0.0        0.0        0.0     0.0     0.0
"Load.LOAD_32"                 1        0.0        0.0        0.0        0.0     0.0     0.0
"Load.LOAD_33"                 1        0.0        0.0        0.0        0.0     0.0     0.0
"Load.LOAD_34"                 1        0.0        0.0        0.0        0.0     0.0     0.0
"Load.LOAD_35"                 1        0.0        0.0        0.0        0.0     0.0     0.0
"Load.LOAD_36"                 1        0.0        0.0        0.0        0.0     0.0     0.0
"Load.LOAD_37"                 1        0.0        0.0        0.0        0.0     0.0     0.0
"Load.LOAD_38"                 1        0.0        0.0        0.0        0.0     0.0     0.0
"Load.LOAD_39"                 1        0.0        0.0        0.0        0.0     0.0     0.0
"Load.LOAD_40"                 1        0.0        0.0        0.0        0.0     0.0     0.0
"Load.LOAD_41"                 1        0.0        0.0        0.0        0.0     0.0     0.0
"Load.LOAD_42"                 1        0.0        0.0        0.0        0.0     0.0     0.0
"Load.LOAD_43"                 1        0.0        0.0        0.0        0.0     0.0     0.0
"Load.LOAD_44"                 1        0.0        0.0        0.0        0.0     0.0     0.0
"Load.LOAD_45"                 1        0.0        0.0        0.0        0.0     0.0     0.0
"Load.LOAD_46"                 1        0.0        0.0        0.0        0.0     0.0     0.0
"Load.LOAD_47"                 1        0.0        0.0        0.0        0.0     0.0     0.0
"Load.LOAD_48"                 1        0.0        0.0        0.0        0.0     0.0     0.0
"Load.LOAD_49"                 1        0.0        0.0        0.0        0.0     0.0     0.0
"Load.LOAD_50"                 1        0.0        0.0        0.0        0.0     0.0     0.0
"Load.LOAD_51"                 1        0.0        0.0        0.0        0.0     0.0     0.0
"Load.LOAD_52"                 1        0.0        0.0        0.0        0.0     0.0     0.0
"Load.LOAD_53"                 1        0.0        0.0        0.0        0.0     0.0     0.0
"Load.LOAD_54"                 1        0.0        0.0        0.0        0.0     0.0     0.0
"Load.LOAD_55"                 1        0.0        0.0        0.0        0.0     0.0     0.0
"Load.LOAD_56"                 1        0.0        0.0        0.0        0.0     0.0     0.0
"Load.LOAD_57"                 1        0.0        0.0        0.0        0.0     0.0     0.0
"Load.LOAD_58"                 1        0.0        0.0        0.0        0.0     0.0     0.0
"Load.LOAD_59"                 1        0.0        0.0        0.0        0.0     0.0     0.0
"Load.LOAD_60"                 1        0.0        0.0        0.0        0.0     0.0     0.0
"Load.LOAD_61"                 1        0.0        0.0        0.0        0.0     0.0     0.0
"Load.LOAD_62"                 1        0.0        0.0        0.0        0.0     0.0     0.0
"Load.LOAD_63"                 1        0.0        0.0        0.0        0.0     0.0     0.0
"Load.LOAD_64"                 1        0.0        0.0        0.0        0.0     0.0     0.0
"Load.LOAD_65"                 1        0.0        0.0        0.0        0.0     0.0     0.0
"Load.LOAD_66"                 1        0.0        0.0        0.0        0.0     0.0     0.0
"Load.LOAD_67"                 1        0.0        0.0        0.0        0.0     0.0     0.0
...